/*---------------------------------------------------------------------------*\
  =========                 |
  \\      /  F ield         | OpenFOAM: The Open Source CFD Toolbox
   \\    /   O peration     | Website:  https://openfoam.org
    \\  /    A nd           | Version:  8
     \\/     M anipulation  |
\*---------------------------------------------------------------------------*/
Build  : 8-1c9b5879390b
Exec   : ScalarPOD_OfflineC_senzaT
Date   : Jul 26 2024
Time   : 15:15:02
Host   : "ubuntu-VirtualBox"
PID    : 102596
I/O    : uncollated
Case   : /home/ubuntu/OpenFOAM/ubuntu-8/run/Cilindro_senzaT/case_study_senzaT
nProcs : 1
sigFpe : Enabling floating point exception trapping (FOAM_SIGFPE).
fileModificationChecking : Monitoring run-time modified files using timeStampMaster (fileModificationSkew 10)
allowSystemOperations : Allowing user-supplied system call operations

// * * * * * * * * * * * * * * * * * * * * * * * * * * * * * * * * * * * * * //
Reading list of folders
1("case_study_senzaT")
Seeking number of Basis: 5
Seeking accuracy: 1.1
I/O    : uncollated
reading snapshots in "case_study_senzaT"

Time = 10000
Time = 20000
Time = 30000
Time = 40000
Time = 50000
Time = 60000
Time = 70000
Time = 80000
Time = 90000
Time = 100000
Time = 110000
Time = 120000
Time = 130000
Time = 140000
Time = 150000
Time = 160000
Time = 170000
Time = 180000
Time = 190000
Time = 200000
Time = 210000
Time = 220000
Time = 230000
Time = 240000
Time = 250000
Time = 260000
Time = 270000
Time = 280000
Time = 290000
Time = 300000
Time = 310000
Time = 320000
Time = 330000
Time = 340000
Time = 350000
Time = 360000
Time = 370000
Time = 380000
Time = 390000
Time = 400000
Time = 410000
Time = 420000
Time = 430000
Time = 440000
Time = 450000
Time = 460000
Time = 470000
Time = 480000
Time = 490000
Time = 500000
Time = 510000
Time = 520000
Time = 530000
Time = 540000
Time = 550000
Time = 560000
Time = 570000
Time = 580000
Time = 590000
Time = 600000
Time = 610000
Time = 620000
Time = 630000
Time = 640000
Time = 650000
Time = 660000
Time = 670000
Time = 680000
Time = 690000
Time = 700000
Time = 710000
Time = 720000
Time = 730000
Time = 740000
Time = 750000
Time = 760000
Time = 770000
Time = 780000
Time = 790000
Time = 800000
Time = 810000
Time = 820000
Time = 830000
Time = 840000
Time = 850000
Time = 860000
Time = 870000
Time = 880000
Time = 890000
Time = 900000
Time = 910000
Time = 920000
Time = 930000
Time = 940000
Time = 950000
Time = 960000
Time = 970000
Time = 980000
Time = 990000
Time = 1e+06
Time = 1.01e+06
Time = 1.02e+06
Time = 1.03e+06
Time = 1.04e+06
Time = 1.05e+06
Time = 1.06e+06
Time = 1.07e+06
Time = 1.08e+06
Time = 1.09e+06
Time = 1.1e+06
Time = 1.11e+06
Time = 1.12e+06
Time = 1.13e+06
Time = 1.14e+06
Time = 1.15e+06
Time = 1.16e+06
Time = 1.17e+06
Time = 1.18e+06
Time = 1.19e+06
Time = 1.2e+06
Time = 1.21e+06
Time = 1.22e+06
Time = 1.23e+06
Time = 1.24e+06
Time = 1.25e+06
Time = 1.26e+06
Time = 1.27e+06
Time = 1.28e+06
Time = 1.29e+06
Time = 1.3e+06
Time = 1.31e+06
Time = 1.32e+06
Time = 1.33e+06
Time = 1.34e+06
Time = 1.35e+06
Time = 1.36e+06
Time = 1.37e+06
Time = 1.38e+06
Time = 1.39e+06
Time = 1.4e+06
Time = 1.41e+06
Time = 1.42e+06
Time = 1.43e+06
Time = 1.44e+06
Time = 1.45e+06
Time = 1.46e+06
Time = 1.47e+06
Time = 1.48e+06
Time = 1.49e+06
Time = 1.5e+06
Time = 1.51e+06
Time = 1.52e+06
Time = 1.53e+06
Time = 1.54e+06
Time = 1.55e+06
Time = 1.56e+06
Time = 1.57e+06
Time = 1.58e+06
Time = 1.59e+06
Time = 1.6e+06
Time = 1.61e+06
Time = 1.62e+06
Time = 1.63e+06
Time = 1.64e+06
Time = 1.65e+06
Time = 1.66e+06
Time = 1.67e+06
Time = 1.68e+06
Time = 1.69e+06
Time = 1.7e+06
Time = 1.71e+06
Time = 1.72e+06
Time = 1.73e+06
Time = 1.74e+06
Time = 1.75e+06
Time = 1.76e+06
Time = 1.77e+06
Time = 1.78e+06
Time = 1.79e+06
Time = 1.8e+06
Time = 1.81e+06
Time = 1.82e+06
Time = 1.83e+06
Time = 1.84e+06
Time = 1.85e+06
Time = 1.86e+06
Time = 1.87e+06
Time = 1.88e+06
Time = 1.89e+06
Time = 1.9e+06
Time = 1.91e+06
Time = 1.92e+06
Time = 1.93e+06
Time = 1.94e+06
Time = 1.95e+06
Time = 1.96e+06
Time = 1.97e+06
Time = 1.98e+06
Time = 1.99e+06
Time = 2e+06
Time = 2.01e+06
Time = 2.02e+06
Time = 2.03e+06
Time = 2.04e+06
Time = 2.05e+06
Time = 2.06e+06
Time = 2.07e+06
Time = 2.08e+06
Time = 2.09e+06
Time = 2.1e+06
Time = 2.11e+06
Time = 2.12e+06
Time = 2.13e+06
Time = 2.14e+06
Time = 2.15e+06
Time = 2.16e+06
Time = 2.17e+06
Time = 2.18e+06
Time = 2.19e+06
Time = 2.2e+06
Time = 2.21e+06
Time = 2.22e+06
Time = 2.23e+06
Time = 2.24e+06
Time = 2.25e+06
Time = 2.26e+06
Time = 2.27e+06
Time = 2.28e+06
Time = 2.29e+06
Time = 2.3e+06
Time = 2.31e+06
Time = 2.32e+06
Time = 2.33e+06
Time = 2.34e+06
Time = 2.35e+06
Time = 2.36e+06
Time = 2.37e+06
Time = 2.38e+06
Time = 2.39e+06
Time = 2.4e+06
Time = 2.41e+06
Time = 2.42e+06
Time = 2.43e+06
Time = 2.44e+06
Time = 2.45e+06
Time = 2.46e+06
Time = 2.47e+06
Time = 2.48e+06
Time = 2.49e+06
Time = 2.5e+06
Time = 2.51e+06
Time = 2.52e+06
Time = 2.53e+06
Time = 2.54e+06
Time = 2.55e+06
Time = 2.56e+06
Time = 2.57e+06
Time = 2.58e+06
Time = 2.59e+06
Time = 2.6e+06
Time = 2.61e+06
Time = 2.62e+06
Time = 2.63e+06
Time = 2.64e+06
Time = 2.65e+06
Time = 2.66e+06
Time = 2.67e+06
Time = 2.68e+06
Time = 2.69e+06
Time = 2.7e+06
Time = 2.71e+06
Time = 2.72e+06
Time = 2.73e+06
Time = 2.74e+06
Time = 2.75e+06
Time = 2.76e+06
Time = 2.77e+06
Time = 2.78e+06
Time = 2.79e+06
Time = 2.8e+06
Time = 2.81e+06
Time = 2.82e+06
Time = 2.83e+06
Time = 2.84e+06
Time = 2.85e+06
Time = 2.86e+06
Time = 2.87e+06
Time = 2.88e+06
Time = 2.89e+06
Time = 2.9e+06
Time = 2.91e+06
Time = 2.92e+06
Time = 2.93e+06
Time = 2.94e+06
Time = 2.95e+06
Time = 2.96e+06
Time = 2.97e+06
Time = 2.98e+06
Time = 2.99e+06
Time = 3e+06
Time = 3.01e+06
Time = 3.02e+06
Time = 3.03e+06
Time = 3.04e+06
Time = 3.05e+06
Time = 3.06e+06
Time = 3.07e+06
Time = 3.08e+06
Time = 3.09e+06
Time = 3.1e+06
Time = 3.11e+06
Time = 3.12e+06
Time = 3.13e+06
Time = 3.14e+06
Time = 3.15e+06
Time = 3.16e+06
Time = 3.17e+06
Time = 3.18e+06
Time = 3.19e+06
Time = 3.2e+06
Time = 3.21e+06
Time = 3.22e+06
Time = 3.23e+06
Time = 3.24e+06
Time = 3.25e+06
Time = 3.26e+06
Time = 3.27e+06
Time = 3.28e+06
Time = 3.29e+06
Time = 3.3e+06
Time = 3.31e+06
Time = 3.32e+06
Time = 3.33e+06
Time = 3.34e+06
Time = 3.35e+06
Time = 3.36e+06
Time = 3.37e+06
Time = 3.38e+06
Time = 3.39e+06
Time = 3.4e+06
Time = 3.41e+06
Time = 3.42e+06
Time = 3.43e+06
Time = 3.44e+06
Time = 3.45e+06
Time = 3.46e+06
Time = 3.47e+06
Time = 3.48e+06
Time = 3.49e+06
Time = 3.5e+06
Time = 3.51e+06
Time = 3.52e+06
Time = 3.53e+06
Time = 3.54e+06
Time = 3.55e+06
Time = 3.56e+06
Time = 3.57e+06
Time = 3.58e+06
Time = 3.59e+06
Time = 3.6e+06
Time = 3.61e+06
Time = 3.62e+06
Time = 3.63e+06
Time = 3.64e+06
Time = 3.65e+06
Time = 3.66e+06
Time = 3.67e+06
Time = 3.68e+06
Time = 3.69e+06
Time = 3.7e+06
Time = 3.71e+06
Time = 3.72e+06
Time = 3.73e+06
Time = 3.74e+06
Time = 3.75e+06
Time = 3.76e+06
Time = 3.77e+06
Time = 3.78e+06
Time = 3.79e+06
Time = 3.8e+06
Time = 3.81e+06
Time = 3.82e+06
Time = 3.83e+06
Time = 3.84e+06
Time = 3.85e+06
Time = 3.86e+06
Time = 3.87e+06
Time = 3.88e+06
Time = 3.89e+06
Time = 3.9e+06
Time = 3.91e+06
Time = 3.92e+06
Time = 3.93e+06
Time = 3.94e+06
Time = 3.95e+06
Time = 3.96e+06
Time = 3.97e+06
Time = 3.98e+06
Time = 3.99e+06
Time = 4e+06
Time = 4.01e+06
Time = 4.02e+06
Time = 4.03e+06
Time = 4.04e+06
Time = 4.05e+06
Time = 4.06e+06
Time = 4.07e+06
Time = 4.08e+06
Time = 4.09e+06
Time = 4.1e+06
Time = 4.11e+06
Time = 4.12e+06
Time = 4.13e+06
Time = 4.14e+06
Time = 4.15e+06
Time = 4.16e+06
Time = 4.17e+06
Time = 4.18e+06
Time = 4.19e+06
Time = 4.2e+06
Time = 4.21e+06
Time = 4.22e+06
Time = 4.23e+06
Time = 4.24e+06
Time = 4.25e+06
Time = 4.26e+06
Time = 4.27e+06
Time = 4.28e+06
Time = 4.29e+06
Time = 4.3e+06
Time = 4.31e+06
Time = 4.32e+06
Time = 4.33e+06
Time = 4.34e+06
Time = 4.35e+06
Time = 4.36e+06
Time = 4.37e+06
Time = 4.38e+06
Time = 4.39e+06
Time = 4.4e+06
Time = 4.41e+06
Time = 4.42e+06
Time = 4.43e+06
Time = 4.44e+06
Time = 4.45e+06
Time = 4.46e+06
Time = 4.47e+06
Time = 4.48e+06
Time = 4.49e+06
Time = 4.5e+06
Time = 4.51e+06
Time = 4.52e+06
Time = 4.53e+06
Time = 4.54e+06
Time = 4.55e+06
Time = 4.56e+06
Time = 4.57e+06
Time = 4.58e+06
Time = 4.59e+06
Time = 4.6e+06
Time = 4.61e+06
Time = 4.62e+06
Time = 4.63e+06
Time = 4.64e+06
Time = 4.65e+06
Time = 4.66e+06
Time = 4.67e+06
Time = 4.68e+06
Time = 4.69e+06
Time = 4.7e+06
Time = 4.71e+06
Time = 4.72e+06
Time = 4.73e+06
Time = 4.74e+06
Time = 4.75e+06
Time = 4.76e+06
Time = 4.77e+06
Time = 4.78e+06
Time = 4.79e+06
Time = 4.8e+06
Time = 4.81e+06
Time = 4.82e+06
Time = 4.83e+06
Time = 4.84e+06
Time = 4.85e+06
Time = 4.86e+06
Time = 4.87e+06
Time = 4.88e+06
Time = 4.89e+06
Time = 4.9e+06
Time = 4.91e+06
Time = 4.92e+06
Time = 4.93e+06
Time = 4.94e+06
Time = 4.95e+06
Time = 4.96e+06
Time = 4.97e+06
Time = 4.98e+06
Time = 4.99e+06
Time = 5e+06
Time = 5.01e+06
Time = 5.02e+06
Time = 5.03e+06
Time = 5.04e+06
Time = 5.05e+06
Time = 5.06e+06
Time = 5.07e+06
Time = 5.08e+06
Time = 5.09e+06
Time = 5.1e+06
Time = 5.11e+06
Time = 5.12e+06
Time = 5.13e+06
Time = 5.14e+06
Time = 5.15e+06
Time = 5.16e+06
Time = 5.17e+06
Time = 5.18e+06
Time = 5.19e+06
Time = 5.2e+06
Time = 5.21e+06
Time = 5.22e+06
Time = 5.23e+06
Time = 5.24e+06
Time = 5.25e+06
Time = 5.26e+06
Time = 5.27e+06
Time = 5.28e+06
Time = 5.29e+06
Time = 5.3e+06
Time = 5.31e+06
Time = 5.32e+06
Time = 5.33e+06
Time = 5.34e+06
Time = 5.35e+06
Time = 5.36e+06
Time = 5.37e+06
Time = 5.38e+06
Time = 5.39e+06
Time = 5.4e+06
Time = 5.41e+06
Time = 5.42e+06
Time = 5.43e+06
Time = 5.44e+06
Time = 5.45e+06
Time = 5.46e+06
Time = 5.47e+06
Time = 5.48e+06
Time = 5.49e+06
Time = 5.5e+06
Time = 5.51e+06
Time = 5.52e+06
Time = 5.53e+06
Time = 5.54e+06
Time = 5.55e+06
Time = 5.56e+06
Time = 5.57e+06
Time = 5.58e+06
Time = 5.59e+06
Time = 5.6e+06
Time = 5.61e+06
Time = 5.62e+06
Time = 5.63e+06
Time = 5.64e+06
Time = 5.65e+06
Time = 5.66e+06
Time = 5.67e+06
Time = 5.68e+06
Time = 5.69e+06
Time = 5.7e+06
Time = 5.71e+06
Time = 5.72e+06
Time = 5.73e+06
Time = 5.74e+06
Time = 5.75e+06
Time = 5.76e+06
Time = 5.77e+06
Time = 5.78e+06
Time = 5.79e+06
Time = 5.8e+06
Time = 5.81e+06
Time = 5.82e+06
Time = 5.83e+06
Time = 5.84e+06
Time = 5.85e+06
Time = 5.86e+06
Time = 5.87e+06
Time = 5.88e+06
Time = 5.89e+06
Time = 5.9e+06
Time = 5.91e+06
Time = 5.92e+06
Time = 5.93e+06
Time = 5.94e+06
Time = 5.95e+06
Time = 5.96e+06
Time = 5.97e+06
Time = 5.98e+06
Time = 5.99e+06
Time = 6e+06
Time = 6.01e+06
Time = 6.02e+06
Time = 6.03e+06
Time = 6.04e+06
Time = 6.05e+06
Time = 6.06e+06
Time = 6.07e+06
Time = 6.08e+06
Time = 6.09e+06
Time = 6.1e+06
Time = 6.11e+06
Time = 6.12e+06
Time = 6.13e+06
Time = 6.14e+06
Time = 6.15e+06
Time = 6.16e+06
Time = 6.17e+06
Time = 6.18e+06
Time = 6.19e+06
Time = 6.2e+06
Time = 6.21e+06
Time = 6.22e+06
Time = 6.23e+06
Time = 6.24e+06
Time = 6.25e+06
Time = 6.26e+06
Time = 6.27e+06
Time = 6.28e+06
Time = 6.29e+06
Time = 6.3e+06
Time = 6.31e+06
Time = 6.32e+06
Time = 6.33e+06
Time = 6.34e+06
Time = 6.35e+06
Time = 6.36e+06
Time = 6.37e+06
Time = 6.38e+06
Time = 6.39e+06
Time = 6.4e+06
Time = 6.41e+06
Time = 6.42e+06
Time = 6.43e+06
Time = 6.44e+06
Time = 6.45e+06
Time = 6.46e+06
Time = 6.47e+06
Time = 6.48e+06
Time = 6.49e+06
Time = 6.5e+06
Time = 6.51e+06
Time = 6.52e+06
Time = 6.53e+06
Time = 6.54e+06
Time = 6.55e+06
Time = 6.56e+06
Time = 6.57e+06
Time = 6.58e+06
Time = 6.59e+06
Time = 6.6e+06
Time = 6.61e+06
Time = 6.62e+06
Time = 6.63e+06
Time = 6.64e+06
Time = 6.65e+06
Time = 6.66e+06
Time = 6.67e+06
Time = 6.68e+06
Time = 6.69e+06
Time = 6.7e+06
Time = 6.71e+06
Time = 6.72e+06
Time = 6.73e+06
Time = 6.74e+06
Time = 6.75e+06
Time = 6.76e+06
Time = 6.77e+06
Time = 6.78e+06
Time = 6.79e+06
Time = 6.8e+06
Time = 6.81e+06
Time = 6.82e+06
Time = 6.83e+06
Time = 6.84e+06
Time = 6.85e+06
Time = 6.86e+06
Time = 6.87e+06
Time = 6.88e+06
Time = 6.89e+06
Time = 6.9e+06
Time = 6.91e+06
Time = 6.92e+06
Time = 6.93e+06
Time = 6.94e+06
Time = 6.95e+06
Time = 6.96e+06
Time = 6.97e+06
Time = 6.98e+06
Time = 6.99e+06
Time = 7e+06
Time = 7.01e+06
Time = 7.02e+06
Time = 7.03e+06
Time = 7.04e+06
Time = 7.05e+06
Time = 7.06e+06
Time = 7.07e+06
Time = 7.08e+06
Time = 7.09e+06
Time = 7.1e+06
Time = 7.11e+06
Time = 7.12e+06
Time = 7.13e+06
Time = 7.14e+06
Time = 7.15e+06
Time = 7.16e+06
Time = 7.17e+06
Time = 7.18e+06
Time = 7.19e+06
Time = 7.2e+06
Time = 7.21e+06
Time = 7.22e+06
Time = 7.23e+06
Time = 7.24e+06
Time = 7.25e+06
Time = 7.26e+06
Time = 7.27e+06
Time = 7.28e+06
Time = 7.29e+06
Time = 7.3e+06
Time = 7.31e+06
Time = 7.32e+06
Time = 7.33e+06
Time = 7.34e+06
Time = 7.35e+06
Time = 7.36e+06
Time = 7.37e+06
Time = 7.38e+06
Time = 7.39e+06
Time = 7.4e+06
Time = 7.41e+06
Time = 7.42e+06
Time = 7.43e+06
Time = 7.44e+06
Time = 7.45e+06
Time = 7.46e+06
Time = 7.47e+06
Time = 7.48e+06
Time = 7.49e+06
Time = 7.5e+06
Time = 7.51e+06
Time = 7.52e+06
Time = 7.53e+06
Time = 7.54e+06
Time = 7.55e+06
Time = 7.56e+06
Time = 7.57e+06
Time = 7.58e+06
Time = 7.59e+06
Time = 7.6e+06
Time = 7.61e+06
Time = 7.62e+06
Time = 7.63e+06
Time = 7.64e+06
Time = 7.65e+06
Time = 7.66e+06
Time = 7.67e+06
Time = 7.68e+06
Time = 7.69e+06
Time = 7.7e+06
Time = 7.71e+06
Time = 7.72e+06
Time = 7.73e+06
Time = 7.74e+06
Time = 7.75e+06
Time = 7.76e+06
Time = 7.77e+06
Time = 7.78e+06
Time = 7.79e+06
Time = 7.8e+06
Time = 7.81e+06
Time = 7.82e+06
Time = 7.83e+06
Time = 7.84e+06
Time = 7.85e+06
Time = 7.86e+06
Time = 7.87e+06
Time = 7.88e+06
Time = 7.89e+06
Time = 7.9e+06
Time = 7.91e+06
Time = 7.92e+06
Time = 7.93e+06
Time = 7.94e+06
Time = 7.95e+06
Time = 7.96e+06
Time = 7.97e+06
Time = 7.98e+06
Time = 7.99e+06
Time = 8e+06
Time = 8.01e+06
Time = 8.02e+06
Time = 8.03e+06
Time = 8.04e+06
Time = 8.05e+06
Time = 8.06e+06
Time = 8.07e+06
Time = 8.08e+06
Time = 8.09e+06
Time = 8.1e+06
Time = 8.11e+06
Time = 8.12e+06
Time = 8.13e+06
Time = 8.14e+06
Time = 8.15e+06
Time = 8.16e+06
Time = 8.17e+06
Time = 8.18e+06
Time = 8.19e+06
Time = 8.2e+06
Time = 8.21e+06
Time = 8.22e+06
Time = 8.23e+06
Time = 8.24e+06
Time = 8.25e+06
Time = 8.26e+06
Time = 8.27e+06
Time = 8.28e+06
Time = 8.29e+06
Time = 8.3e+06
Time = 8.31e+06
Time = 8.32e+06
Time = 8.33e+06
Time = 8.34e+06
Time = 8.35e+06
Time = 8.36e+06
Time = 8.37e+06
Time = 8.38e+06
Time = 8.39e+06
Time = 8.4e+06
Time = 8.41e+06
Time = 8.42e+06
Time = 8.43e+06
Time = 8.44e+06
Time = 8.45e+06
Time = 8.46e+06
Time = 8.47e+06
Time = 8.48e+06
Time = 8.49e+06
Time = 8.5e+06
Time = 8.51e+06
Time = 8.52e+06
Time = 8.53e+06
Time = 8.54e+06
Time = 8.55e+06
Time = 8.56e+06
Time = 8.57e+06
Time = 8.58e+06
Time = 8.59e+06
Time = 8.6e+06
Time = 8.61e+06
Time = 8.62e+06
Time = 8.63e+06
Time = 8.64e+06
Time = 8.65e+06
Time = 8.66e+06
Time = 8.67e+06
Time = 8.68e+06
Time = 8.69e+06
Time = 8.7e+06
Time = 8.71e+06
Time = 8.72e+06
Time = 8.73e+06
Time = 8.74e+06
Time = 8.75e+06
Time = 8.76e+06
Time = 8.77e+06
Time = 8.78e+06
Time = 8.79e+06
Time = 8.8e+06
Time = 8.81e+06
Time = 8.82e+06
Time = 8.83e+06
Time = 8.84e+06
Time = 8.85e+06
Time = 8.86e+06
Time = 8.87e+06
Time = 8.88e+06
Time = 8.89e+06
Time = 8.9e+06
Time = 8.91e+06
Time = 8.92e+06
Time = 8.93e+06
Time = 8.94e+06
Time = 8.95e+06
Time = 8.96e+06
Time = 8.97e+06
Time = 8.98e+06
Time = 8.99e+06
Time = 9e+06
Time = 9.01e+06
Time = 9.02e+06
Time = 9.03e+06
Time = 9.04e+06
Time = 9.05e+06
Time = 9.06e+06
Time = 9.07e+06
Time = 9.08e+06
Time = 9.09e+06
Time = 9.1e+06
Time = 9.11e+06
Time = 9.12e+06
Time = 9.13e+06
Time = 9.14e+06
Time = 9.15e+06
Time = 9.16e+06
Time = 9.17e+06
Time = 9.18e+06
Time = 9.19e+06
Time = 9.2e+06
Time = 9.21e+06
Time = 9.22e+06
Time = 9.23e+06
Time = 9.24e+06
Time = 9.25e+06
Time = 9.26e+06
Time = 9.27e+06
Time = 9.28e+06
Time = 9.29e+06
Time = 9.3e+06
Time = 9.31e+06
Time = 9.32e+06
Time = 9.33e+06
Time = 9.34e+06
Time = 9.35e+06
Time = 9.36e+06
Time = 9.37e+06
Time = 9.38e+06
Time = 9.39e+06
Time = 9.4e+06
Time = 9.41e+06
Time = 9.42e+06
Time = 9.43e+06
Time = 9.44e+06
Time = 9.45e+06
Time = 9.46e+06
Time = 9.47e+06
Time = 9.48e+06
Time = 9.49e+06
Time = 9.5e+06
Time = 9.51e+06
Time = 9.52e+06
Time = 9.53e+06
Time = 9.54e+06
Time = 9.55e+06
Time = 9.56e+06
Time = 9.57e+06
Time = 9.58e+06
Time = 9.59e+06
Time = 9.6e+06
Time = 9.61e+06
Time = 9.62e+06
Time = 9.63e+06
Time = 9.64e+06
Time = 9.65e+06
Time = 9.66e+06
Time = 9.67e+06
Time = 9.68e+06
Time = 9.69e+06
Time = 9.7e+06
Time = 9.71e+06
Time = 9.72e+06
Time = 9.73e+06
Time = 9.74e+06
Time = 9.75e+06
Time = 9.76e+06
Time = 9.77e+06
Time = 9.78e+06
Time = 9.79e+06
Time = 9.8e+06
Time = 9.81e+06
Time = 9.82e+06
Time = 9.83e+06
Time = 9.84e+06
Time = 9.85e+06
Time = 9.86e+06
Time = 9.87e+06
Time = 9.88e+06
Time = 9.89e+06
Time = 9.9e+06
Time = 9.91e+06
Time = 9.92e+06
Time = 9.93e+06
Time = 9.94e+06
Time = 9.95e+06
Time = 9.96e+06
Time = 9.97e+06
Time = 9.98e+06
Time = 9.99e+06
Time = 1e+07

 creating ''POD"C_5basis"'' folder 

Reading transportProperties

Reading D1_0

Cumulative eigen-values: 
1000
(
0.99993795262322
0.99999942345523
0.99999990748643
0.99999999469444
0.99999999896703
0.99999999990832
0.99999999998026
0.99999999999632
0.99999999999827
0.99999999999912
0.99999999999958
0.99999999999969
0.99999999999974
0.99999999999976
0.99999999999978
0.99999999999979
0.9999999999998
0.99999999999981
0.99999999999982
0.99999999999983
0.99999999999984
0.99999999999984
0.99999999999985
0.99999999999985
0.99999999999986
0.99999999999986
0.99999999999987
0.99999999999987
0.99999999999988
0.99999999999988
0.99999999999989
0.99999999999989
0.99999999999989
0.9999999999999
0.9999999999999
0.9999999999999
0.99999999999991
0.99999999999991
0.99999999999992
0.99999999999992
0.99999999999992
0.99999999999993
0.99999999999993
0.99999999999993
0.99999999999994
0.99999999999994
0.99999999999994
0.99999999999995
0.99999999999995
0.99999999999995
0.99999999999995
0.99999999999996
0.99999999999996
0.99999999999996
0.99999999999997
0.99999999999997
0.99999999999997
0.99999999999997
0.99999999999998
0.99999999999998
0.99999999999998
0.99999999999999
0.99999999999999
0.99999999999999
0.99999999999999
1
1
1
1
1
1
1
1
1
1
1
1
1
1
1
1
1
1
1
1
1
1
1
1
1
1
1.0000000000001
1.0000000000001
1.0000000000001
1.0000000000001
1.0000000000001
1.0000000000001
1.0000000000001
1.0000000000001
1.0000000000001
1.0000000000001
1.0000000000001
1.0000000000001
1.0000000000001
1.0000000000001
1.0000000000001
1.0000000000001
1.0000000000001
1.0000000000001
1.0000000000001
1.0000000000001
1.0000000000001
1.0000000000001
1.0000000000001
1.0000000000001
1.0000000000001
1.0000000000001
1.0000000000001
1.0000000000001
1.0000000000001
1.0000000000001
1.0000000000001
1.0000000000001
1.0000000000001
1.0000000000001
1.0000000000001
1.0000000000001
1.0000000000001
1.0000000000001
1.0000000000001
1.0000000000001
1.0000000000001
1.0000000000001
1.0000000000001
1.0000000000001
1.0000000000001
1.0000000000001
1.0000000000001
1.0000000000001
1.0000000000001
1.0000000000001
1.0000000000001
1.0000000000001
1.0000000000001
1.0000000000001
1.0000000000001
1.0000000000001
1.0000000000001
1.0000000000001
1.0000000000001
1.0000000000001
1.0000000000001
1.0000000000001
1.0000000000001
1.0000000000001
1.0000000000001
1.0000000000001
1.0000000000001
1.0000000000001
1.0000000000001
1.0000000000001
1.0000000000001
1.0000000000001
1.0000000000001
1.0000000000001
1.0000000000001
1.0000000000001
1.0000000000001
1.0000000000001
1.0000000000001
1.0000000000001
1.0000000000001
1.0000000000001
1.0000000000001
1.0000000000001
1.0000000000001
1.0000000000001
1.0000000000001
1.0000000000001
1.0000000000001
1.0000000000001
1.0000000000001
1.0000000000001
1.0000000000001
1.0000000000001
1.0000000000001
1.0000000000001
1.0000000000001
1.0000000000001
1.0000000000001
1.0000000000001
1.0000000000001
1.0000000000001
1.0000000000001
1.0000000000001
1.0000000000001
1.0000000000001
1.0000000000001
1.0000000000001
1.0000000000001
1.0000000000001
1.0000000000001
1.0000000000001
1.0000000000001
1.0000000000001
1.0000000000001
1.0000000000001
1.0000000000001
1.0000000000001
1.0000000000001
1.0000000000001
1.0000000000001
1.0000000000001
1.0000000000001
1.0000000000001
1.0000000000001
1.0000000000001
1.0000000000001
1.0000000000001
1.0000000000001
1.0000000000001
1.0000000000001
1.0000000000001
1.0000000000001
1.0000000000001
1.0000000000001
1.0000000000001
1.0000000000001
1.0000000000001
1.0000000000001
1.0000000000001
1.0000000000001
1.0000000000001
1.0000000000001
1.0000000000001
1.0000000000001
1.0000000000001
1.0000000000001
1.0000000000001
1.0000000000001
1.0000000000001
1.0000000000001
1.0000000000001
1.0000000000001
1.0000000000001
1.0000000000001
1.0000000000001
1.0000000000001
1.0000000000001
1.0000000000001
1.0000000000001
1.0000000000001
1.0000000000001
1.0000000000001
1.0000000000001
1.0000000000001
1.0000000000001
1.0000000000001
1.0000000000001
1.0000000000001
1.0000000000001
1.0000000000001
1.0000000000001
1.0000000000001
1.0000000000001
1.0000000000001
1.0000000000001
1.0000000000001
1.0000000000001
1.0000000000001
1.0000000000001
1.0000000000001
1.0000000000001
1.0000000000001
1.0000000000001
1.0000000000001
1.0000000000001
1.0000000000001
1.0000000000001
1.0000000000001
1.0000000000001
1.0000000000001
1.0000000000001
1.0000000000001
1.0000000000001
1.0000000000001
1.0000000000001
1.0000000000001
1.0000000000001
1.0000000000001
1.0000000000001
1.0000000000001
1.0000000000001
1.0000000000001
1.0000000000001
1.0000000000001
1.0000000000001
1.0000000000001
1.0000000000001
1.0000000000001
1.0000000000001
1.0000000000001
1.0000000000001
1.0000000000001
1.0000000000001
1.0000000000001
1.0000000000001
1.0000000000001
1.0000000000001
1.0000000000001
1.0000000000001
1.0000000000001
1.0000000000001
1.0000000000001
1.0000000000001
1.0000000000001
1.0000000000001
1.0000000000001
1.0000000000001
1.0000000000001
1.0000000000001
1.0000000000001
1.0000000000001
1.0000000000001
1.0000000000001
1.0000000000001
1.0000000000001
1.0000000000001
1.0000000000001
1.0000000000001
1.0000000000001
1.0000000000001
1.0000000000001
1.0000000000001
1.0000000000001
1.0000000000001
1.0000000000001
1.0000000000001
1.0000000000001
1.0000000000001
1.0000000000001
1.0000000000001
1.0000000000001
1.0000000000001
1.0000000000001
1.0000000000001
1.0000000000001
1.0000000000001
1.0000000000001
1.0000000000001
1.0000000000001
1.0000000000001
1.0000000000001
1.0000000000001
1.0000000000001
1.0000000000001
1.0000000000001
1.0000000000001
1.0000000000001
1.0000000000001
1.0000000000001
1.0000000000001
1.0000000000001
1.0000000000001
1.0000000000001
1.0000000000001
1.0000000000001
1.0000000000001
1.0000000000001
1.0000000000001
1.0000000000001
1.0000000000001
1.0000000000001
1.0000000000001
1.0000000000001
1.0000000000001
1.0000000000001
1.0000000000001
1.0000000000001
1.0000000000001
1.0000000000001
1.0000000000001
1.0000000000001
1.0000000000001
1.0000000000001
1.0000000000001
1.0000000000001
1.0000000000001
1.0000000000001
1.0000000000001
1.0000000000001
1.0000000000001
1.0000000000001
1.0000000000001
1.0000000000001
1.0000000000001
1.0000000000001
1.0000000000001
1.0000000000001
1.0000000000001
1.0000000000001
1.0000000000001
1.0000000000001
1.0000000000001
1.0000000000001
1.0000000000001
1.0000000000001
1.0000000000001
1.0000000000001
1.0000000000001
1.0000000000001
1.0000000000001
1.0000000000001
1.0000000000001
1.0000000000001
1.0000000000001
1.0000000000001
1.0000000000001
1.0000000000001
1.0000000000001
1.0000000000001
1.0000000000001
1.0000000000001
1.0000000000001
1.0000000000001
1.0000000000001
1.0000000000001
1.0000000000001
1.0000000000001
1.0000000000001
1.0000000000001
1.0000000000001
1.0000000000001
1.0000000000001
1.0000000000001
1.0000000000001
1.0000000000001
1.0000000000001
1.0000000000001
1.0000000000001
1.0000000000001
1.0000000000001
1.0000000000001
1.0000000000001
1.0000000000001
1.0000000000001
1.0000000000001
1.0000000000001
1.0000000000001
1.0000000000001
1.0000000000001
1.0000000000001
1.0000000000001
1.0000000000001
1.0000000000001
1.0000000000001
1.0000000000001
1.0000000000001
1.0000000000001
1.0000000000001
1.0000000000001
1.0000000000001
1.0000000000001
1.0000000000001
1.0000000000001
1.0000000000001
1.0000000000001
1.0000000000001
1.0000000000001
1.0000000000001
1.0000000000001
1.0000000000001
1.0000000000001
1.0000000000001
1.0000000000001
1.0000000000001
1.0000000000001
1.0000000000001
1.0000000000001
1.0000000000001
1.0000000000001
1.0000000000001
1.0000000000001
1.0000000000001
1.0000000000001
1.0000000000001
1.0000000000001
1.0000000000001
1.0000000000001
1.0000000000001
1.0000000000001
1.0000000000001
1.0000000000001
1.0000000000001
1.0000000000001
1.0000000000001
1.0000000000001
1.0000000000001
1.0000000000001
1.0000000000001
1.0000000000001
1.0000000000001
1.0000000000001
1.0000000000001
1.0000000000001
1.0000000000001
1.0000000000001
1.0000000000001
1.0000000000001
1.0000000000001
1.0000000000001
1.0000000000001
1.0000000000001
1.0000000000001
1.0000000000001
1.0000000000001
1.0000000000001
1.0000000000001
1.0000000000001
1.0000000000001
1.0000000000001
1.0000000000001
1.0000000000001
1.0000000000001
1.0000000000001
1.0000000000001
1.0000000000001
1.0000000000001
1.0000000000001
1.0000000000001
1.0000000000001
1.0000000000001
1.0000000000001
1.0000000000001
1.0000000000001
1.0000000000001
1.0000000000001
1.0000000000001
1.0000000000001
1.0000000000001
1.0000000000001
1.0000000000001
1.0000000000001
1.0000000000001
1.0000000000001
1.0000000000001
1.0000000000001
1.0000000000001
1.0000000000001
1.0000000000001
1.0000000000001
1.0000000000001
1.0000000000001
1.0000000000001
1.0000000000001
1.0000000000001
1.0000000000001
1.0000000000001
1.0000000000001
1.0000000000001
1.0000000000001
1.0000000000001
1.0000000000001
1.0000000000001
1.0000000000001
1.0000000000001
1.0000000000001
1.0000000000001
1.0000000000001
1.0000000000001
1.0000000000001
1.0000000000001
1.0000000000001
1.0000000000001
1.0000000000001
1.0000000000001
1.0000000000001
1.0000000000001
1.0000000000001
1.0000000000001
1.0000000000001
1.0000000000001
1.0000000000001
1.0000000000001
1.0000000000001
1.0000000000001
1.0000000000001
1.0000000000001
1.0000000000001
1.0000000000001
1.0000000000001
1.0000000000001
1.0000000000001
1.0000000000001
1.0000000000001
1.0000000000001
1.0000000000001
1.0000000000001
1.0000000000001
1.0000000000001
1.0000000000001
1.0000000000001
1.0000000000001
1.0000000000001
1.0000000000001
1.0000000000001
1.0000000000001
1.0000000000001
1.0000000000001
1.0000000000001
1.0000000000001
1.0000000000001
1.0000000000001
1.0000000000001
1.0000000000001
1.0000000000001
1.0000000000001
1.0000000000001
1.0000000000001
1.0000000000001
1.0000000000001
1.0000000000001
1.0000000000001
1.0000000000001
1.0000000000001
1.0000000000001
1.0000000000001
1.0000000000001
1.0000000000001
1.0000000000001
1.0000000000001
1.0000000000001
1.0000000000001
1.0000000000001
1.0000000000001
1.0000000000001
1.0000000000001
1.0000000000001
1.0000000000001
1.0000000000001
1.0000000000001
1.0000000000001
1.0000000000001
1.0000000000001
1.0000000000001
1.0000000000001
1.0000000000001
1.0000000000001
1.0000000000001
1.0000000000001
1.0000000000001
1.0000000000001
1.0000000000001
1.0000000000001
1.0000000000001
1.0000000000001
1.0000000000001
1.0000000000001
1.0000000000001
1.0000000000001
1.0000000000001
1.0000000000001
1.0000000000001
1.0000000000001
1.0000000000001
1.0000000000001
1.0000000000001
1.0000000000001
1.0000000000001
1.0000000000001
1.0000000000001
1.0000000000001
1.0000000000001
1.0000000000001
1.0000000000001
1.0000000000001
1.0000000000001
1.0000000000001
1.0000000000001
1.0000000000001
1.0000000000001
1.0000000000001
1.0000000000001
1.0000000000001
1.0000000000001
1.0000000000001
1.0000000000001
1.0000000000001
1.0000000000001
1.0000000000001
1.0000000000001
1.0000000000001
1.0000000000001
1.0000000000001
1.0000000000001
1.0000000000001
1.0000000000001
1.0000000000001
1.0000000000001
1.0000000000001
1.0000000000001
1.0000000000001
1.0000000000001
1.0000000000001
1.0000000000001
1.0000000000001
1.0000000000001
1.0000000000001
1.0000000000001
1.0000000000001
1.0000000000001
1.0000000000001
1.0000000000001
1.0000000000001
1.0000000000001
1.0000000000001
1.0000000000001
1.0000000000001
1.0000000000001
1.0000000000001
1.0000000000001
1.0000000000001
1.0000000000001
1.0000000000001
1.0000000000001
1.0000000000001
1.0000000000001
1.0000000000001
1.0000000000001
1.0000000000001
1.0000000000001
1.0000000000001
1.0000000000001
1.0000000000001
1.0000000000001
1.0000000000001
1.0000000000001
1.0000000000001
1.0000000000001
1.0000000000001
1.0000000000001
1.0000000000001
1.0000000000001
1.0000000000001
1.0000000000001
1.0000000000001
1.0000000000001
1.0000000000001
1.0000000000001
1.0000000000001
1.0000000000001
1.0000000000001
1.0000000000001
1.0000000000001
1.0000000000001
1.0000000000001
1.0000000000001
1.0000000000001
1.0000000000001
1.0000000000001
1.0000000000001
1.0000000000001
1.0000000000001
1.0000000000001
1.0000000000001
1.0000000000001
1.0000000000001
1.0000000000001
1.0000000000001
1.0000000000001
1.0000000000001
1.0000000000001
1.0000000000001
1.0000000000001
1.0000000000001
1.0000000000001
1.0000000000001
1.0000000000001
1.0000000000001
1.0000000000001
1.0000000000001
1.0000000000001
1.0000000000001
1.0000000000001
1.0000000000001
1.0000000000001
1.0000000000001
1.0000000000001
1.0000000000001
1.0000000000001
1.0000000000001
1.0000000000001
1.0000000000001
1.0000000000001
1.0000000000001
1.0000000000001
1.0000000000001
1.0000000000001
1.0000000000001
1.0000000000001
1.0000000000001
1.0000000000001
1.0000000000001
1.0000000000001
1.0000000000001
1.0000000000001
1.0000000000001
1.0000000000001
1.0000000000001
1.0000000000001
1.0000000000001
1.0000000000001
1.0000000000001
1.0000000000001
1.0000000000001
1.0000000000001
1.0000000000001
1.0000000000001
1.0000000000001
1.0000000000001
1.0000000000001
1.0000000000001
1.0000000000001
1.0000000000001
1.0000000000001
1.0000000000001
1.0000000000001
1.0000000000001
1.0000000000001
1.0000000000001
1.0000000000001
1.0000000000001
1.0000000000001
1.0000000000001
1.0000000000001
1.0000000000001
1.0000000000001
1.0000000000001
1.0000000000001
1.0000000000001
1.0000000000001
1.0000000000001
1.0000000000001
1.0000000000001
1.0000000000001
1.0000000000001
1.0000000000001
1.0000000000001
1.0000000000001
1.0000000000001
1.0000000000001
1.0000000000001
1.0000000000001
1.0000000000001
1.0000000000001
1.0000000000001
1.0000000000001
1.0000000000001
1.0000000000001
1.0000000000001
1.0000000000001
1.0000000000001
1.0000000000001
1.0000000000001
1.0000000000001
1.0000000000001
1.0000000000001
1.0000000000001
1.0000000000001
1.0000000000001
1.0000000000001
1.0000000000001
1.0000000000001
1.0000000000001
1.0000000000001
1.0000000000001
1.0000000000001
1.0000000000001
1.0000000000001
1.0000000000001
1.0000000000001
1.0000000000001
1.0000000000001
1.0000000000001
1.0000000000001
1.0000000000001
1.0000000000001
1.0000000000001
1.0000000000001
1.0000000000001
1.0000000000001
1.0000000000001
1.0000000000001
1.0000000000001
1.0000000000001
1.0000000000001
1.0000000000001
1.0000000000001
1.0000000000001
1.0000000000001
1.0000000000001
1.0000000000001
1.0000000000001
1.0000000000001
1.0000000000001
1.0000000000001
1.0000000000001
1.0000000000001
1.0000000000001
1.0000000000001
1.0000000000001
1.0000000000001
1.0000000000001
1.0000000000001
1.0000000000001
1.0000000000001
1.0000000000001
1.0000000000001
1.0000000000001
1.0000000000001
1.0000000000001
1.0000000000001
1.0000000000001
1.0000000000001
1.0000000000001
1.0000000000001
1.0000000000001
1.0000000000001
1.0000000000001
1.0000000000001
1.0000000000001
1.0000000000001
1.0000000000001
1.0000000000001
1.0000000000001
1.0000000000001
1.0000000000001
1.0000000000001
1.0000000000001
1.0000000000001
1.0000000000001
1.0000000000001
1.0000000000001
1.0000000000001
1.0000000000001
1.0000000000001
1.0000000000001
1.0000000000001
1.0000000000001
1.0000000000001
1.0000000000001
1.0000000000001
1.0000000000001
1.0000000000001
1.0000000000001
1.0000000000001
1.0000000000001
1.0000000000001
1.0000000000001
1.0000000000001
1.0000000000001
1.0000000000001
1.0000000000001
1.0000000000001
1.0000000000001
1.0000000000001
1.0000000000001
1.0000000000001
1.0000000000001
1.0000000000001
1.0000000000001
1.0000000000001
1.0000000000001
1.0000000000001
1.0000000000001
1.0000000000001
1.0000000000001
1.0000000000001
1.0000000000001
1.0000000000001
1
1
1
1
1
1
1
1
1
1
1
1
1
1
1
1
1
1
1
1
)

Base size: 5
Field error: absolute = 0.0020007118791972 relative = 0.010651214437799 measure = 0.18783885076025
Field error: absolute = 0.00082971361459006 relative = 0.0022859414251347 measure = 0.36296363741742
Field error: absolute = 0.0005046318774712 relative = 0.00095465256437219 measure = 0.52860265221522
Field error: absolute = 0.00089053963946407 relative = 0.0012975692802043 measure = 0.68631375067991
Field error: absolute = 0.00098503706909301 relative = 0.0011767774935958 measure = 0.83706314443788
Field error: absolute = 0.00086790035030928 relative = 0.00088423218676874 measure = 0.98152992313124
Field error: absolute = 0.00064832432547606 relative = 0.00057874392025693 measure = 1.1202265851678
Field error: absolute = 0.00041297064990755 relative = 0.00032943834328381 measure = 1.2535597580752
Field error: absolute = 0.00026333052637866 relative = 0.00019056190655933 measure = 1.3818634119127
Field error: absolute = 0.00031032912806356 relative = 0.00020614087296665 measure = 1.5054225957108
Field error: absolute = 0.00044081390933222 relative = 0.00027135738544916 measure = 1.6244772870382
Field error: absolute = 0.00055703674803827 relative = 0.00032027399948078 measure = 1.7392506071093
Field error: absolute = 0.00063571729236966 relative = 0.00034364376713019 measure = 1.849931100682
Field error: absolute = 0.00067652085143331 relative = 0.00034574710636438 measure = 1.9566927357602
Field error: absolute = 0.00068152978455713 relative = 0.00033088808683639 measure = 2.0596987672576
Field error: absolute = 0.00065751903752667 relative = 0.00030453403676978 measure = 2.1590986823707
Field error: absolute = 0.00061115947023179 relative = 0.00027102054419277 measure = 2.2550300459772
Field error: absolute = 0.00054776882860585 relative = 0.0002333289593395 measure = 2.347624701865
Field error: absolute = 0.00047322016525386 relative = 0.00019418102748124 measure = 2.4370051564363
Field error: absolute = 0.00039227140049503 relative = 0.00015546045391821 measure = 2.5232873737872
Field error: absolute = 0.00031107512667309 relative = 0.00011934212891517 measure = 2.606582683758
Field error: absolute = 0.00023415784004832 relative = 8.714470603281e-05 measure = 2.6870001714179
Field error: absolute = 0.00017156519285677 relative = 6.20570318319e-05 measure = 2.7646374277375
Field error: absolute = 0.00014036361503453 relative = 4.9430876123565e-05 measure = 2.8395939146143
Field error: absolute = 0.00015226119592717 relative = 5.2288155099075e-05 measure = 2.9119634387303
Field error: absolute = 0.00019338121702669 relative = 6.485305735131e-05 measure = 2.9818365536592
Field error: absolute = 0.00024405789712483 relative = 8.0037414901613e-05 measure = 3.0492975994395
Field error: absolute = 0.00029464336094853 relative = 9.4605810342012e-05 measure = 3.114431977099
Field error: absolute = 0.00034083198278105 relative = 0.00010727030630255 measure = 3.1773190040098
Field error: absolute = 0.00038063820497235 relative = 0.00011755223938679 measure = 3.2380344854164
Field error: absolute = 0.00041511441504811 relative = 0.00012591981563683 measure = 3.2966567886768
Field error: absolute = 0.00044318738427353 relative = 0.00013216629971663 measure = 3.3532555971056
Field error: absolute = 0.00046507233905121 relative = 0.0001364688429041 measure = 3.4079012407105
Field error: absolute = 0.00048128362926903 relative = 0.00013907277606944 measure = 3.46066025912
Field error: absolute = 0.00049145614252327 relative = 0.00013995228812849 measure = 3.5115977673196
Field error: absolute = 0.0004968633579075 relative = 0.00013953790211195 measure = 3.5607770389787
Field error: absolute = 0.00049805509124875 relative = 0.00013803198479418 measure = 3.6082585640668
Field error: absolute = 0.00049390706014709 relative = 0.00013516522086573 measure = 3.6540987169897
Field error: absolute = 0.00048681153888267 relative = 0.00013162914773681 measure = 3.69835668811
Field error: absolute = 0.00047600266944469 relative = 0.00012723648920233 measure = 3.7410861650525
Field error: absolute = 0.0004619868863712 relative = 0.00012214318797214 measure = 3.7823385326783
Field error: absolute = 0.00044615581250055 relative = 0.00011672852158987 measure = 3.8221662231628
Field error: absolute = 0.00042717856916037 relative = 0.00011065036558571 measure = 3.8606159762704
Field error: absolute = 0.0004063713646484 relative = 0.0001042582707916 measure = 3.8977374318888
Field error: absolute = 0.00038415585535499 relative = 9.7660740407881e-05 measure = 3.9335750860639
Field error: absolute = 0.00036058509555101 relative = 9.0869253453457e-05 measure = 3.9681749529911
Field error: absolute = 0.00033598958050945 relative = 8.3964288848075e-05 measure = 4.0015771599922
Field error: absolute = 0.00031026703196333 relative = 7.6916329214579e-05 measure = 4.0338252635244
Field error: absolute = 0.00028488737727151 relative = 7.0083710628847e-05 measure = 4.0649585290972
Field error: absolute = 0.00025819288612569 relative = 6.30505558696e-05 measure = 4.0950136373053
Field error: absolute = 0.00023283950972331 relative = 5.6459208316509e-05 measure = 4.1240307235273
Field error: absolute = 0.00020710855789531 relative = 4.9881128109375e-05 measure = 4.1520423804607
Field error: absolute = 0.00018282975623548 relative = 4.374874311684e-05 measure = 4.1790859167587
Field error: absolute = 0.00015929811445443 relative = 3.7881274792393e-05 measure = 4.2051941315983
Field error: absolute = 0.00013734749913128 relative = 3.2466805206337e-05 measure = 4.23039773265
Field error: absolute = 0.00011819739107524 relative = 2.7780232357867e-05 measure = 4.2547301099795
Field error: absolute = 0.00010262035086551 relative = 2.39866892553e-05 measure = 4.2782207153843
Field error: absolute = 9.1497227085146e-05 relative = 2.1273983358398e-05 measure = 4.3008977464969
Field error: absolute = 8.6777216917855e-05 relative = 2.0074354068384e-05 measure = 4.3227899947488
Field error: absolute = 8.890474255205e-05 relative = 2.0466458972798e-05 measure = 4.3439240109984
Field error: absolute = 9.6327254572374e-05 relative = 2.2071498634399e-05 measure = 4.3643277771019
Field error: absolute = 0.0001084203674454 relative = 2.4730784110613e-05 measure = 4.3840246617522
Field error: absolute = 0.00012247544151491 relative = 2.7816114705487e-05 measure = 4.4030391307939
Field error: absolute = 0.00013756234906166 relative = 3.1112874467385e-05 measure = 4.4213963324368
Field error: absolute = 0.00015333729416748 relative = 3.454229500582e-05 measure = 4.4391171501963
Field error: absolute = 0.00016900221773139 relative = 3.7924971350082e-05 measure = 4.4562253237146
Field error: absolute = 0.00018499827215587 relative = 4.1361277938334e-05 measure = 4.4727407221721
Field error: absolute = 0.00020021478942998 relative = 4.4604337484488e-05 measure = 4.4886843011537
Field error: absolute = 0.00021498802795311 relative = 4.7731888520009e-05 measure = 4.5040754644139
Field error: absolute = 0.00022911665698979 relative = 5.0701480208756e-05 measure = 4.5189342805464
Field error: absolute = 0.00024234850112533 relative = 5.3459874824316e-05 measure = 4.5332784994681
Field error: absolute = 0.00025482669189416 relative = 5.6041265035775e-05 measure = 4.5471259746097
Field error: absolute = 0.00026645276159824 relative = 5.8426292665166e-05 measure = 4.5604940762757
Field error: absolute = 0.00027834649283172 relative = 6.0862066431595e-05 measure = 4.5733986561985
Field error: absolute = 0.00028809814955748 relative = 6.2823184508969e-05 measure = 4.5858571450855
Field error: absolute = 0.00029787002285155 relative = 6.4784151001787e-05 measure = 4.5978841776183
Field error: absolute = 0.00030717675088552 relative = 6.6640020553493e-05 measure = 4.6094936396207
Field error: absolute = 0.00031578129636118 relative = 6.8340556033242e-05 measure = 4.6207013037409
Field error: absolute = 0.00032250939820315 relative = 6.9633552659549e-05 measure = 4.6315229639361
Field error: absolute = 0.00032991375572143 relative = 7.1071982472818e-05 measure = 4.6419664154944
Field error: absolute = 0.00033619097638225 relative = 7.2267268215716e-05 measure = 4.6520504328284
Field error: absolute = 0.00034182838476539 relative = 7.3325652650607e-05 measure = 4.6617844152603
Field error: absolute = 0.00034688655361811 relative = 7.4260989863779e-05 measure = 4.6711813868146
Field error: absolute = 0.00035136892998659 relative = 7.5074777195017e-05 measure = 4.680252717552
Field error: absolute = 0.00035553216104601 relative = 7.5822431643534e-05 measure = 4.6890102749209
Field error: absolute = 0.00035865390533287 relative = 7.6350533623215e-05 measure = 4.697464291511
Field error: absolute = 0.00036139134149439 relative = 7.6799843363488e-05 measure = 4.7056260230109
Field error: absolute = 0.00036306139747833 relative = 7.7025786421241e-05 measure = 4.7135045852412
Field error: absolute = 0.00036501201187299 relative = 7.7314871288124e-05 measure = 4.7211099985244
Field error: absolute = 0.00036657586568573 relative = 7.7525562068053e-05 measure = 4.7284515701279
Field error: absolute = 0.00036665723088913 relative = 7.7426679816658e-05 measure = 4.7355411824109
Field error: absolute = 0.00036733566364392 relative = 7.7458041066192e-05 measure = 4.7423825672278
Field error: absolute = 0.00036808168238611 relative = 7.7507388708733e-05 measure = 4.7489883031582
Field error: absolute = 0.00036818446096003 relative = 7.7425074620637e-05 measure = 4.755364625272
Field error: absolute = 0.0003671415996946 relative = 7.7105951512793e-05 measure = 4.761520900675
Field error: absolute = 0.00036668185575333 relative = 7.6913410722115e-05 measure = 4.76746320714
Field error: absolute = 0.00036512269147015 relative = 7.6494310352231e-05 measure = 4.7732006444516
Field error: absolute = 0.00036406349525596 relative = 7.6184029366286e-05 measure = 4.7787377260603
Field error: absolute = 0.0003622780754273 relative = 7.5725695736431e-05 measure = 4.7840838159908
Field error: absolute = 0.00035940889478924 relative = 7.5044997614893e-05 measure = 4.7892452023733
Field error: absolute = 0.00035669296334131 relative = 7.4400513524679e-05 measure = 4.7942271691847
Field error: absolute = 0.00035451228779957 relative = 7.3871553967313e-05 measure = 4.7990365541307
Field error: absolute = 0.00035162896541358 relative = 7.3199930080561e-05 measure = 4.8036789792913
Field error: absolute = 0.00034834624042841 relative = 7.2448949442477e-05 measure = 4.8081613758249
Field error: absolute = 0.00034547196845117 relative = 7.178655854516e-05 measure = 4.8124882352987
Field error: absolute = 0.00034160928000406 relative = 7.0922368709578e-05 measure = 4.8166648438227
Field error: absolute = 0.00033750900734772 relative = 7.0012472867035e-05 measure = 4.8206982774155
Field error: absolute = 0.0003340261178416 relative = 6.9234092847555e-05 measure = 4.8245900842102
Field error: absolute = 0.00032989211627639 relative = 6.8324018533607e-05 measure = 4.8283476785565
Field error: absolute = 0.00032518506188475 relative = 6.7298582168284e-05 measure = 4.8319749303426
Field error: absolute = 0.00032103263580951 relative = 6.6391093593919e-05 measure = 4.8354774478201
Field error: absolute = 0.00031662858010606 relative = 6.5434576207926e-05 measure = 4.8388573511952
Field error: absolute = 0.00031241438737778 relative = 6.4520159382262e-05 measure = 4.8421205150289
Field error: absolute = 0.00030757825163311 relative = 6.3480094790983e-05 measure = 4.8452708308936
Field error: absolute = 0.00030273471776834 relative = 6.2441254073917e-05 measure = 4.8483125820946
Field error: absolute = 0.00029822636419764 relative = 6.1474152166642e-05 measure = 4.8512481048818
Field error: absolute = 0.00029287220314265 relative = 6.0335231573879e-05 measure = 4.8540826893825
Field error: absolute = 0.00028859203875264 relative = 5.9419986442484e-05 measure = 4.8568176472403
Field error: absolute = 0.00028384467691043 relative = 5.8410753151227e-05 measure = 4.8594592878395
Field error: absolute = 0.00027838730415481 relative = 5.7257668280056e-05 measure = 4.8620090988193
Field error: absolute = 0.00027370243476875 relative = 5.6265614318288e-05 measure = 4.8644707444309
Field error: absolute = 0.00026859921564872 relative = 5.5189579305876e-05 measure = 4.8668465863831
Field error: absolute = 0.00026394736079459 relative = 5.4208204977378e-05 measure = 4.8691403986674
Field error: absolute = 0.00025872932653292 relative = 5.3112398544537e-05 measure = 4.8713545918278
Field error: absolute = 0.00025391249363827 relative = 5.2100726218563e-05 measure = 4.8734924072479
Field error: absolute = 0.0002485596460671 relative = 5.0980774383193e-05 measure = 4.8755565029049
Field error: absolute = 0.00024384833799147 relative = 4.9994047963361e-05 measure = 4.8775473866445
Field error: absolute = 0.00023935574369169 relative = 4.9053630703674e-05 measure = 4.8794704950099
Field error: absolute = 0.00023422740840832 relative = 4.7984366238545e-05 measure = 4.8813275399721
Field error: absolute = 0.00022991624370735 relative = 4.708389181897e-05 measure = 4.8831189356934
Field error: absolute = 0.00022476616362909 relative = 4.6012915721258e-05 measure = 4.8848493973019
Field error: absolute = 0.00021996829285795 relative = 4.5015327301562e-05 measure = 4.8865199043063
Field error: absolute = 0.00021588886550675 relative = 4.4165932129301e-05 measure = 4.8881310797361
Field error: absolute = 0.00021123789333883 relative = 4.3200684452766e-05 measure = 4.8896885781936
Field error: absolute = 0.00020670865676095 relative = 4.2261424698035e-05 measure = 4.8911899737861
Field error: absolute = 0.00020218363878608 relative = 4.1324031849934e-05 measure = 4.8926406677911
Field error: absolute = 0.00019725682155061 relative = 4.0305507055687e-05 measure = 4.8940414340421
Field error: absolute = 0.00019259257409902 relative = 3.9341593517394e-05 measure = 4.8953933198938
Field error: absolute = 0.00018867075729974 relative = 3.8530198747177e-05 measure = 4.8966982635553
Field error: absolute = 0.00018404664269269 relative = 3.7576205079382e-05 measure = 4.8979571594279
Field error: absolute = 0.00017962091017799 relative = 3.6663518083823e-05 measure = 4.8991727898922
Field error: absolute = 0.00017530347303929 relative = 3.5773677622003e-05 measure = 4.9003480964861
Field error: absolute = 0.0001705712978732 relative = 3.4799953788649e-05 measure = 4.901480585553
Field error: absolute = 0.00016686910673335 relative = 3.403703999571e-05 measure = 4.9025739827666
Field error: absolute = 0.00016223543853211 relative = 3.3084756130255e-05 measure = 4.9036310829491
Field error: absolute = 0.00015827445973154 relative = 3.2270285565292e-05 measure = 4.904650112603
Field error: absolute = 0.0001543051987789 relative = 3.1454690226323e-05 measure = 4.9056340300489
Field error: absolute = 0.00014989370009348 relative = 3.0549500057149e-05 measure = 4.9065843896977
Field error: absolute = 0.00014605508296325 relative = 2.9761597277898e-05 measure = 4.9075014892332
Field error: absolute = 0.0001422104731347 relative = 2.8972956475418e-05 measure = 4.908386662416
Field error: absolute = 0.000138547489971 relative = 2.8221771671627e-05 measure = 4.9092414035188
Field error: absolute = 0.0001345750599208 relative = 2.740799085344e-05 measure = 4.9100665802327
Field error: absolute = 0.00013084258211482 relative = 2.6643501600179e-05 measure = 4.9108628467192
Field error: absolute = 0.00012682488827266 relative = 2.582133029498e-05 measure = 4.9116326240294
Field error: absolute = 0.00012327978034808 relative = 2.5095764155334e-05 measure = 4.9123740398986
Field error: absolute = 0.0001198387920142 relative = 2.4391735687557e-05 measure = 4.9130899723275
Field error: absolute = 0.00011646866574248 relative = 2.370244994714e-05 measure = 4.9137817399561
Field error: absolute = 0.00011293091480671 relative = 2.2979361303904e-05 measure = 4.9144496800059
Field error: absolute = 0.00010980338878792 relative = 2.2340036245516e-05 measure = 4.915094477967
Field error: absolute = 0.00010634393394168 relative = 2.1633453441651e-05 measure = 4.9157169579284
Field error: absolute = 0.00010324406132561 relative = 2.1000283904189e-05 measure = 4.9163174077383
Field error: absolute = 0.00010008868140152 relative = 2.035606636311e-05 measure = 4.916896988649
Field error: absolute = 9.7447818711758e-05 relative = 1.9816712032396e-05 measure = 4.9174564656564
Field error: absolute = 9.3587521870385e-05 relative = 1.9029598344808e-05 measure = 4.9179977514302
Field error: absolute = 9.079601421553e-05 relative = 1.846003199982e-05 measure = 4.9185187878557
Field error: absolute = 8.8177788939903e-05 relative = 1.792587816976e-05 measure = 4.9190219918293
Field error: absolute = 8.5194968900759e-05 relative = 1.7317780417513e-05 measure = 4.9195085540293
Field error: absolute = 8.2268091500059e-05 relative = 1.6721231682885e-05 measure = 4.919977969342
Field error: absolute = 7.9544817864543e-05 relative = 1.6166229182575e-05 measure = 4.920431163396
Field error: absolute = 7.6869069932174e-05 relative = 1.5621038509008e-05 measure = 4.9208680900343
Field error: absolute = 7.4139729674528e-05 relative = 1.5065096646885e-05 measure = 4.9212913406603
Field error: absolute = 7.1617268835896e-05 relative = 1.4551335808748e-05 measure = 4.9216972089147
Field error: absolute = 6.8513309915079e-05 relative = 1.3919550880528e-05 measure = 4.9220919915544
Field error: absolute = 6.6108083783955e-05 relative = 1.3429855443155e-05 measure = 4.9224717320132
Field error: absolute = 6.38897396628e-05 relative = 1.2978233732542e-05 measure = 4.9228378051631
Field error: absolute = 6.1880217552015e-05 relative = 1.25691254881e-05 measure = 4.9231919603794
Field error: absolute = 5.9330150832834e-05 relative = 1.2050317665191e-05 measure = 4.9235341740588
Field error: absolute = 5.7284535631666e-05 relative = 1.1634065684358e-05 measure = 4.9238621463762
Field error: absolute = 5.5084634391873e-05 relative = 1.1186557125256e-05 measure = 4.924181209204
Field error: absolute = 5.2419037719592e-05 relative = 1.0644564147736e-05 measure = 4.9244888745156
Field error: absolute = 5.0866399444219e-05 relative = 1.0328654865881e-05 measure = 4.9247845053131
Field error: absolute = 4.8273815846002e-05 relative = 9.8016475010958e-06 measure = 4.9250716107272
Field error: absolute = 4.6265811186725e-05 relative = 9.3934074993861e-06 measure = 4.9253491014574
Field error: absolute = 4.4577066289815e-05 relative = 9.0500500080302e-06 measure = 4.9256154662417
Field error: absolute = 4.2249845069178e-05 relative = 8.5771279072563e-06 measure = 4.9258732673713
Field error: absolute = 4.0455692256292e-05 relative = 8.212484414044e-06 measure = 4.9261210392204
Field error: absolute = 4.0116225873489e-05 relative = 8.1431771554722e-06 measure = 4.9263604496841
Field error: absolute = 3.9908242564885e-05 relative = 8.1005765777064e-06 measure = 4.9265928396648
Field error: absolute = 3.6188196783276e-05 relative = 7.3451476863786e-06 measure = 4.926816767808
Field error: absolute = 3.4041440662107e-05 relative = 6.9091161864209e-06 measure = 4.9270325962982
Field error: absolute = 3.2074498267688e-05 relative = 6.5096245342362e-06 measure = 4.9272424390989
Field error: absolute = 3.0521999310059e-05 relative = 6.1942886932489e-06 measure = 4.9274421683518
Field error: absolute = 3.0103292723048e-05 relative = 6.1090738036511e-06 measure = 4.9276361181063
Field error: absolute = 3.1345727138197e-05 relative = 6.3609679587906e-06 measure = 4.9278234604025
Field error: absolute = 3.1689860787305e-05 relative = 6.4305661244144e-06 measure = 4.9280048092486
Field error: absolute = 3.2506738453256e-05 relative = 6.5960957387858e-06 measure = 4.9281786894197
Field error: absolute = 3.2417701634065e-05 relative = 6.5778020124625e-06 measure = 4.9283486448277
Field error: absolute = 3.171114810004e-05 relative = 6.4342218033566e-06 measure = 4.9285133570461
Field error: absolute = 3.2332120118449e-05 relative = 6.5600115583622e-06 measure = 4.9286681632801
Field error: absolute = 3.1462656890496e-05 relative = 6.3834020730757e-06 measure = 4.9288226764223
Field error: absolute = 3.103806626301e-05 relative = 6.2970709121998e-06 measure = 4.9289688326166
Field error: absolute = 3.0280596526612e-05 relative = 6.1432169595898e-06 measure = 4.929110712807
Field error: absolute = 2.9282099837544e-05 relative = 5.9404807638728e-06 measure = 4.9292474803764
Field error: absolute = 2.8659367311059e-05 relative = 5.8139906007214e-06 measure = 4.9293797116739
Field error: absolute = 2.739174658153e-05 relative = 5.556690108622e-06 measure = 4.9295076828249
Field error: absolute = 2.6480974282085e-05 relative = 5.3717956505674e-06 measure = 4.9296317292502
Field error: absolute = 2.5870729809887e-05 relative = 5.247879119201e-06 measure = 4.9297495659211
Field error: absolute = 2.4770725295483e-05 relative = 5.0246255003507e-06 measure = 4.9298649807342
Field error: absolute = 2.3588751134989e-05 relative = 4.7847604260624e-06 measure = 4.9299753873782
Field error: absolute = 2.3105028769778e-05 relative = 4.6865399137696e-06 measure = 4.9300825758238
Field error: absolute = 2.2097052764863e-05 relative = 4.4819915089265e-06 measure = 4.9301862176341
Field error: absolute = 2.1356656511866e-05 relative = 4.3317279093127e-06 measure = 4.9302857794812
Field error: absolute = 2.4024402811618e-05 relative = 4.8727289970036e-06 measure = 4.9303794293488
Field error: absolute = 2.6890116723829e-05 relative = 5.4538649673929e-06 measure = 4.9304698382886
Field error: absolute = 2.3901356612375e-05 relative = 4.8475952090346e-06 measure = 4.9305595004776
Field error: absolute = 2.5946035505254e-05 relative = 5.2621995877971e-06 measure = 4.93064450946
Field error: absolute = 2.7722266227801e-05 relative = 5.6223496126148e-06 measure = 4.9307261443865
Field error: absolute = 2.8935591732591e-05 relative = 5.86833164699e-06 measure = 4.9308037570495
Field error: absolute = 2.9594739371856e-05 relative = 6.0019201412951e-06 measure = 4.9308785647171
Field error: absolute = 3.0190117282277e-05 relative = 6.1225752041802e-06 measure = 4.9309508295896
Field error: absolute = 3.1070609329109e-05 relative = 6.3010512162281e-06 measure = 4.9310199620482
Field error: absolute = 3.0908645620162e-05 relative = 6.2681214213094e-06 measure = 4.931085973396
Field error: absolute = 3.1089586717297e-05 relative = 6.3047343406519e-06 measure = 4.9311493613358
Field error: absolute = 3.0407871325661e-05 relative = 6.1664126211513e-06 measure = 4.9312093098278
Field error: absolute = 3.0372039898531e-05 relative = 6.1590736750438e-06 measure = 4.9312675088783
Field error: absolute = 2.9866747670155e-05 relative = 6.0565385595323e-06 measure = 4.9313229622138
Field error: absolute = 3.0408569751366e-05 relative = 6.1663438266232e-06 measure = 4.9313775887873
Field error: absolute = 2.971741880275e-05 relative = 6.02612649662e-06 measure = 4.9314296371671
Field error: absolute = 2.951470213018e-05 relative = 5.9849574718294e-06 measure = 4.9314806778667
Field error: absolute = 2.881107069131e-05 relative = 5.8422177866198e-06 measure = 4.9315297278536
Field error: absolute = 2.8672660143686e-05 relative = 5.8140958683676e-06 measure = 4.9315767735587
Field error: absolute = 2.7245231393857e-05 relative = 5.5245985054408e-06 measure = 4.9316219752485
Field error: absolute = 2.7588115435833e-05 relative = 5.5940755768373e-06 measure = 4.9316665563233
Field error: absolute = 2.7404021808261e-05 relative = 5.5566976703469e-06 measure = 4.9317100612657
Field error: absolute = 2.6416205516445e-05 relative = 5.3563540433144e-06 measure = 4.9317512066658
Field error: absolute = 2.6082901559614e-05 relative = 5.2887276284789e-06 measure = 4.931791423548
Field error: absolute = 2.5466148519974e-05 relative = 5.1636303394006e-06 measure = 4.9318302911146
Field error: absolute = 2.5158026924542e-05 relative = 5.1011149789702e-06 measure = 4.9318682343485
Field error: absolute = 2.5085348505534e-05 relative = 5.0863404930346e-06 measure = 4.9319050779016
Field error: absolute = 2.4882167574824e-05 relative = 5.0451068884776e-06 measure = 4.931940615897
Field error: absolute = 2.3991000800299e-05 relative = 4.8643801925317e-06 measure = 4.9319748561455
Field error: absolute = 2.3834961202304e-05 relative = 4.8327093845716e-06 measure = 4.9320079701869
Field error: absolute = 2.360519333731e-05 relative = 4.7860907690253e-06 measure = 4.932040464021
Field error: absolute = 2.3472671658436e-05 relative = 4.7591904878161e-06 measure = 4.9320723174514
Field error: absolute = 2.3439443152415e-05 relative = 4.7524241440997e-06 measure = 4.9321025316134
Field error: absolute = 2.2986922589889e-05 relative = 4.6606459367175e-06 measure = 4.9321323486072
Field error: absolute = 2.3033779245289e-05 relative = 4.6701198889246e-06 measure = 4.9321601571545
Field error: absolute = 2.3030604546327e-05 relative = 4.6694501904008e-06 measure = 4.9321876467751
Field error: absolute = 2.2805806188126e-05 relative = 4.6238469903596e-06 measure = 4.932214719837
Field error: absolute = 2.2280560683937e-05 relative = 4.5173307102963e-06 measure = 4.9322403235063
Field error: absolute = 2.266431038084e-05 relative = 4.5951113676983e-06 measure = 4.9322657422758
Field error: absolute = 2.2730330498317e-05 relative = 4.6084739292816e-06 measure = 4.9322901348951
Field error: absolute = 2.2875020045114e-05 relative = 4.6377868727285e-06 measure = 4.9323137679366
Field error: absolute = 2.272803761683e-05 relative = 4.6079655590922e-06 measure = 4.932336695092
Field error: absolute = 2.2473916936236e-05 relative = 4.5564239731934e-06 measure = 4.9323585927157
Field error: absolute = 2.2576331090167e-05 relative = 4.5771675126316e-06 measure = 4.9323803482967
Field error: absolute = 2.2577678413711e-05 relative = 4.5774213905539e-06 measure = 4.9324011244197
Field error: absolute = 2.3287883859298e-05 relative = 4.7213894181685e-06 measure = 4.932421750615
Field error: absolute = 2.2697720994851e-05 relative = 4.6017218636458e-06 measure = 4.9324408704852
Field error: absolute = 2.3164116978717e-05 relative = 4.6962605784236e-06 measure = 4.9324598990827
Field error: absolute = 2.3171921982907e-05 relative = 4.6978259056817e-06 measure = 4.9324777989075
Field error: absolute = 2.3667124982401e-05 relative = 4.7982047820784e-06 measure = 4.9324958098493
Field error: absolute = 2.3243569715482e-05 relative = 4.7123176335387e-06 measure = 4.9325133666821
Field error: absolute = 2.3992807544085e-05 relative = 4.8641985739376e-06 measure = 4.9325304424531
Field error: absolute = 2.3979606650628e-05 relative = 4.8615066626203e-06 measure = 4.9325462896112
Field error: absolute = 2.4166967248537e-05 relative = 4.8994752664189e-06 measure = 4.9325623529887
Field error: absolute = 2.469617889112e-05 relative = 5.0067491538089e-06 measure = 4.9325776331999
Field error: absolute = 2.4377666302108e-05 relative = 4.9421614048716e-06 measure = 4.9325920999016
Field error: absolute = 2.5012542755957e-05 relative = 5.0708568988302e-06 measure = 4.9326067082917
Field error: absolute = 2.4927142961328e-05 relative = 5.0535300554258e-06 measure = 4.9326199088425
Field error: absolute = 2.5047763157235e-05 relative = 5.0779692880258e-06 measure = 4.9326338417011
Field error: absolute = 2.5262529869493e-05 relative = 5.1214958230607e-06 measure = 4.9326467778696
Field error: absolute = 2.5794514690656e-05 relative = 5.2293318818203e-06 measure = 4.9326597113352
Field error: absolute = 2.5373129626169e-05 relative = 5.1438920479941e-06 measure = 4.932671484827
Field error: absolute = 2.5951203244307e-05 relative = 5.2610716863399e-06 measure = 4.9326838316397
Field error: absolute = 2.6331953921928e-05 relative = 5.3382491743541e-06 measure = 4.93269479597
Field error: absolute = 2.6099701408133e-05 relative = 5.2911521901602e-06 measure = 4.9327066147654
Field error: absolute = 2.6538036965585e-05 relative = 5.3800034172612e-06 measure = 4.9327174924165
Field error: absolute = 2.649663588389e-05 relative = 5.3715990840149e-06 measure = 4.9327277537781
Field error: absolute = 2.7195733123575e-05 relative = 5.5133135519863e-06 measure = 4.9327383373249
Field error: absolute = 2.7286125635586e-05 relative = 5.5316279733462e-06 measure = 4.9327477854734
Field error: absolute = 2.7045923670611e-05 relative = 5.4829221486741e-06 measure = 4.9327571935618
Field error: absolute = 2.7652641767467e-05 relative = 5.6059085981049e-06 measure = 4.9327671480078
Field error: absolute = 2.8067005287024e-05 relative = 5.6899011995363e-06 measure = 4.9327755092323
Field error: absolute = 2.7307741895701e-05 relative = 5.5359688748289e-06 measure = 4.9327845790219
Field error: absolute = 2.7307741895701e-05 relative = 5.5359688748289e-06 measure = 4.9327845790219
Field error: absolute = 2.7307741895701e-05 relative = 5.5359688748289e-06 measure = 4.9327845790219
Field error: absolute = 2.7307741895701e-05 relative = 5.5359688748289e-06 measure = 4.9327845790219
Field error: absolute = 2.7307741895701e-05 relative = 5.5359688748289e-06 measure = 4.9327845790219
Field error: absolute = 2.7307741895701e-05 relative = 5.5359688748289e-06 measure = 4.9327845790219
Field error: absolute = 2.7307741895701e-05 relative = 5.5359688748289e-06 measure = 4.9327845790219
Field error: absolute = 2.7307741895701e-05 relative = 5.5359688748289e-06 measure = 4.9327845790219
Field error: absolute = 2.7307741895701e-05 relative = 5.5359688748289e-06 measure = 4.9327845790219
Field error: absolute = 2.7307741895701e-05 relative = 5.5359688748289e-06 measure = 4.9327845790219
Field error: absolute = 2.7307741895701e-05 relative = 5.5359688748289e-06 measure = 4.9327845790219
Field error: absolute = 2.7307741895701e-05 relative = 5.5359688748289e-06 measure = 4.9327845790219
Field error: absolute = 2.7307741895701e-05 relative = 5.5359688748289e-06 measure = 4.9327845790219
Field error: absolute = 2.7307741895701e-05 relative = 5.5359688748289e-06 measure = 4.9327845790219
Field error: absolute = 2.7307741895701e-05 relative = 5.5359688748289e-06 measure = 4.9327845790219
Field error: absolute = 2.7307741895701e-05 relative = 5.5359688748289e-06 measure = 4.9327845790219
Field error: absolute = 2.7307741895701e-05 relative = 5.5359688748289e-06 measure = 4.9327845790219
Field error: absolute = 2.7307741895701e-05 relative = 5.5359688748289e-06 measure = 4.9327845790219
Field error: absolute = 2.7307741895701e-05 relative = 5.5359688748289e-06 measure = 4.9327845790219
Field error: absolute = 2.7307741895701e-05 relative = 5.5359688748289e-06 measure = 4.9327845790219
Field error: absolute = 2.7307741895701e-05 relative = 5.5359688748289e-06 measure = 4.9327845790219
Field error: absolute = 2.7307741895701e-05 relative = 5.5359688748289e-06 measure = 4.9327845790219
Field error: absolute = 2.7307741895701e-05 relative = 5.5359688748289e-06 measure = 4.9327845790219
Field error: absolute = 2.7307741895701e-05 relative = 5.5359688748289e-06 measure = 4.9327845790219
Field error: absolute = 2.7307741895701e-05 relative = 5.5359688748289e-06 measure = 4.9327845790219
Field error: absolute = 2.7307741895701e-05 relative = 5.5359688748289e-06 measure = 4.9327845790219
Field error: absolute = 2.7307741895701e-05 relative = 5.5359688748289e-06 measure = 4.9327845790219
Field error: absolute = 2.7307741895701e-05 relative = 5.5359688748289e-06 measure = 4.9327845790219
Field error: absolute = 2.7307741895701e-05 relative = 5.5359688748289e-06 measure = 4.9327845790219
Field error: absolute = 2.7307741895701e-05 relative = 5.5359688748289e-06 measure = 4.9327845790219
Field error: absolute = 2.7307741895701e-05 relative = 5.5359688748289e-06 measure = 4.9327845790219
Field error: absolute = 2.7307741895701e-05 relative = 5.5359688748289e-06 measure = 4.9327845790219
Field error: absolute = 2.7307741895701e-05 relative = 5.5359688748289e-06 measure = 4.9327845790219
Field error: absolute = 2.7307741895701e-05 relative = 5.5359688748289e-06 measure = 4.9327845790219
Field error: absolute = 2.7307741895701e-05 relative = 5.5359688748289e-06 measure = 4.9327845790219
Field error: absolute = 2.7307741895701e-05 relative = 5.5359688748289e-06 measure = 4.9327845790219
Field error: absolute = 2.7307741895701e-05 relative = 5.5359688748289e-06 measure = 4.9327845790219
Field error: absolute = 2.7307741895701e-05 relative = 5.5359688748289e-06 measure = 4.9327845790219
Field error: absolute = 2.7307741895701e-05 relative = 5.5359688748289e-06 measure = 4.9327845790219
Field error: absolute = 2.7307741895701e-05 relative = 5.5359688748289e-06 measure = 4.9327845790219
Field error: absolute = 2.7307741895701e-05 relative = 5.5359688748289e-06 measure = 4.9327845790219
Field error: absolute = 2.7307741895701e-05 relative = 5.5359688748289e-06 measure = 4.9327845790219
Field error: absolute = 2.7307741895701e-05 relative = 5.5359688748289e-06 measure = 4.9327845790219
Field error: absolute = 2.7307741895701e-05 relative = 5.5359688748289e-06 measure = 4.9327845790219
Field error: absolute = 2.7307741895701e-05 relative = 5.5359688748289e-06 measure = 4.9327845790219
Field error: absolute = 2.7307741895701e-05 relative = 5.5359688748289e-06 measure = 4.9327845790219
Field error: absolute = 2.7307741895701e-05 relative = 5.5359688748289e-06 measure = 4.9327845790219
Field error: absolute = 2.7307741895701e-05 relative = 5.5359688748289e-06 measure = 4.9327845790219
Field error: absolute = 2.7307741895701e-05 relative = 5.5359688748289e-06 measure = 4.9327845790219
Field error: absolute = 2.7307741895701e-05 relative = 5.5359688748289e-06 measure = 4.9327845790219
Field error: absolute = 2.7307741895701e-05 relative = 5.5359688748289e-06 measure = 4.9327845790219
Field error: absolute = 2.7307741895701e-05 relative = 5.5359688748289e-06 measure = 4.9327845790219
Field error: absolute = 2.7307741895701e-05 relative = 5.5359688748289e-06 measure = 4.9327845790219
Field error: absolute = 2.7307741895701e-05 relative = 5.5359688748289e-06 measure = 4.9327845790219
Field error: absolute = 2.7307741895701e-05 relative = 5.5359688748289e-06 measure = 4.9327845790219
Field error: absolute = 2.7307741895701e-05 relative = 5.5359688748289e-06 measure = 4.9327845790219
Field error: absolute = 2.7307741895701e-05 relative = 5.5359688748289e-06 measure = 4.9327845790219
Field error: absolute = 2.7307741895701e-05 relative = 5.5359688748289e-06 measure = 4.9327845790219
Field error: absolute = 2.7307741895701e-05 relative = 5.5359688748289e-06 measure = 4.9327845790219
Field error: absolute = 2.7307741895701e-05 relative = 5.5359688748289e-06 measure = 4.9327845790219
Field error: absolute = 2.7307741895701e-05 relative = 5.5359688748289e-06 measure = 4.9327845790219
Field error: absolute = 2.7307741895701e-05 relative = 5.5359688748289e-06 measure = 4.9327845790219
Field error: absolute = 2.7307741895701e-05 relative = 5.5359688748289e-06 measure = 4.9327845790219
Field error: absolute = 2.7307741895701e-05 relative = 5.5359688748289e-06 measure = 4.9327845790219
Field error: absolute = 2.7307741895701e-05 relative = 5.5359688748289e-06 measure = 4.9327845790219
Field error: absolute = 2.7307741895701e-05 relative = 5.5359688748289e-06 measure = 4.9327845790219
Field error: absolute = 2.7307741895701e-05 relative = 5.5359688748289e-06 measure = 4.9327845790219
Field error: absolute = 2.7307741895701e-05 relative = 5.5359688748289e-06 measure = 4.9327845790219
Field error: absolute = 2.7307741895701e-05 relative = 5.5359688748289e-06 measure = 4.9327845790219
Field error: absolute = 2.7307741895701e-05 relative = 5.5359688748289e-06 measure = 4.9327845790219
Field error: absolute = 2.7307741895701e-05 relative = 5.5359688748289e-06 measure = 4.9327845790219
Field error: absolute = 2.7307741895701e-05 relative = 5.5359688748289e-06 measure = 4.9327845790219
Field error: absolute = 2.7307741895701e-05 relative = 5.5359688748289e-06 measure = 4.9327845790219
Field error: absolute = 2.7307741895701e-05 relative = 5.5359688748289e-06 measure = 4.9327845790219
Field error: absolute = 2.7307741895701e-05 relative = 5.5359688748289e-06 measure = 4.9327845790219
Field error: absolute = 2.7307741895701e-05 relative = 5.5359688748289e-06 measure = 4.9327845790219
Field error: absolute = 2.7307741895701e-05 relative = 5.5359688748289e-06 measure = 4.9327845790219
Field error: absolute = 2.7307741895701e-05 relative = 5.5359688748289e-06 measure = 4.9327845790219
Field error: absolute = 2.7307741895701e-05 relative = 5.5359688748289e-06 measure = 4.9327845790219
Field error: absolute = 2.7307741895701e-05 relative = 5.5359688748289e-06 measure = 4.9327845790219
Field error: absolute = 2.7307741895701e-05 relative = 5.5359688748289e-06 measure = 4.9327845790219
Field error: absolute = 2.7307741895701e-05 relative = 5.5359688748289e-06 measure = 4.9327845790219
Field error: absolute = 2.7307741895701e-05 relative = 5.5359688748289e-06 measure = 4.9327845790219
Field error: absolute = 2.7307741895701e-05 relative = 5.5359688748289e-06 measure = 4.9327845790219
Field error: absolute = 2.7307741895701e-05 relative = 5.5359688748289e-06 measure = 4.9327845790219
Field error: absolute = 2.7307741895701e-05 relative = 5.5359688748289e-06 measure = 4.9327845790219
Field error: absolute = 2.7307741895701e-05 relative = 5.5359688748289e-06 measure = 4.9327845790219
Field error: absolute = 2.7307741895701e-05 relative = 5.5359688748289e-06 measure = 4.9327845790219
Field error: absolute = 2.7307741895701e-05 relative = 5.5359688748289e-06 measure = 4.9327845790219
Field error: absolute = 2.7307741895701e-05 relative = 5.5359688748289e-06 measure = 4.9327845790219
Field error: absolute = 2.7307741895701e-05 relative = 5.5359688748289e-06 measure = 4.9327845790219
Field error: absolute = 2.7307741895701e-05 relative = 5.5359688748289e-06 measure = 4.9327845790219
Field error: absolute = 2.7307741895701e-05 relative = 5.5359688748289e-06 measure = 4.9327845790219
Field error: absolute = 2.7307741895701e-05 relative = 5.5359688748289e-06 measure = 4.9327845790219
Field error: absolute = 2.7307741895701e-05 relative = 5.5359688748289e-06 measure = 4.9327845790219
Field error: absolute = 2.7307741895701e-05 relative = 5.5359688748289e-06 measure = 4.9327845790219
Field error: absolute = 2.7307741895701e-05 relative = 5.5359688748289e-06 measure = 4.9327845790219
Field error: absolute = 2.7307741895701e-05 relative = 5.5359688748289e-06 measure = 4.9327845790219
Field error: absolute = 2.7307741895701e-05 relative = 5.5359688748289e-06 measure = 4.9327845790219
Field error: absolute = 2.7307741895701e-05 relative = 5.5359688748289e-06 measure = 4.9327845790219
Field error: absolute = 2.7307741895701e-05 relative = 5.5359688748289e-06 measure = 4.9327845790219
Field error: absolute = 2.7307741895701e-05 relative = 5.5359688748289e-06 measure = 4.9327845790219
Field error: absolute = 2.7307741895701e-05 relative = 5.5359688748289e-06 measure = 4.9327845790219
Field error: absolute = 2.7307741895701e-05 relative = 5.5359688748289e-06 measure = 4.9327845790219
Field error: absolute = 2.7307741895701e-05 relative = 5.5359688748289e-06 measure = 4.9327845790219
Field error: absolute = 2.7307741895701e-05 relative = 5.5359688748289e-06 measure = 4.9327845790219
Field error: absolute = 2.7307741895701e-05 relative = 5.5359688748289e-06 measure = 4.9327845790219
Field error: absolute = 2.7307741895701e-05 relative = 5.5359688748289e-06 measure = 4.9327845790219
Field error: absolute = 2.7307741895701e-05 relative = 5.5359688748289e-06 measure = 4.9327845790219
Field error: absolute = 2.7307741895701e-05 relative = 5.5359688748289e-06 measure = 4.9327845790219
Field error: absolute = 2.7307741895701e-05 relative = 5.5359688748289e-06 measure = 4.9327845790219
Field error: absolute = 2.7307741895701e-05 relative = 5.5359688748289e-06 measure = 4.9327845790219
Field error: absolute = 2.7307741895701e-05 relative = 5.5359688748289e-06 measure = 4.9327845790219
Field error: absolute = 2.7307741895701e-05 relative = 5.5359688748289e-06 measure = 4.9327845790219
Field error: absolute = 2.7307741895701e-05 relative = 5.5359688748289e-06 measure = 4.9327845790219
Field error: absolute = 2.7307741895701e-05 relative = 5.5359688748289e-06 measure = 4.9327845790219
Field error: absolute = 2.7307741895701e-05 relative = 5.5359688748289e-06 measure = 4.9327845790219
Field error: absolute = 2.7307741895701e-05 relative = 5.5359688748289e-06 measure = 4.9327845790219
Field error: absolute = 2.7307741895701e-05 relative = 5.5359688748289e-06 measure = 4.9327845790219
Field error: absolute = 2.7307741895701e-05 relative = 5.5359688748289e-06 measure = 4.9327845790219
Field error: absolute = 2.7307741895701e-05 relative = 5.5359688748289e-06 measure = 4.9327845790219
Field error: absolute = 2.7307741895701e-05 relative = 5.5359688748289e-06 measure = 4.9327845790219
Field error: absolute = 2.7307741895701e-05 relative = 5.5359688748289e-06 measure = 4.9327845790219
Field error: absolute = 2.7307741895701e-05 relative = 5.5359688748289e-06 measure = 4.9327845790219
Field error: absolute = 2.7307741895701e-05 relative = 5.5359688748289e-06 measure = 4.9327845790219
Field error: absolute = 2.7307741895701e-05 relative = 5.5359688748289e-06 measure = 4.9327845790219
Field error: absolute = 2.7307741895701e-05 relative = 5.5359688748289e-06 measure = 4.9327845790219
Field error: absolute = 2.7307741895701e-05 relative = 5.5359688748289e-06 measure = 4.9327845790219
Field error: absolute = 2.7307741895701e-05 relative = 5.5359688748289e-06 measure = 4.9327845790219
Field error: absolute = 2.7307741895701e-05 relative = 5.5359688748289e-06 measure = 4.9327845790219
Field error: absolute = 2.7307741895701e-05 relative = 5.5359688748289e-06 measure = 4.9327845790219
Field error: absolute = 2.7307741895701e-05 relative = 5.5359688748289e-06 measure = 4.9327845790219
Field error: absolute = 2.7307741895701e-05 relative = 5.5359688748289e-06 measure = 4.9327845790219
Field error: absolute = 2.7307741895701e-05 relative = 5.5359688748289e-06 measure = 4.9327845790219
Field error: absolute = 2.7307741895701e-05 relative = 5.5359688748289e-06 measure = 4.9327845790219
Field error: absolute = 2.7307741895701e-05 relative = 5.5359688748289e-06 measure = 4.9327845790219
Field error: absolute = 2.7307741895701e-05 relative = 5.5359688748289e-06 measure = 4.9327845790219
Field error: absolute = 2.7307741895701e-05 relative = 5.5359688748289e-06 measure = 4.9327845790219
Field error: absolute = 2.7307741895701e-05 relative = 5.5359688748289e-06 measure = 4.9327845790219
Field error: absolute = 2.7307741895701e-05 relative = 5.5359688748289e-06 measure = 4.9327845790219
Field error: absolute = 2.7307741895701e-05 relative = 5.5359688748289e-06 measure = 4.9327845790219
Field error: absolute = 2.7307741895701e-05 relative = 5.5359688748289e-06 measure = 4.9327845790219
Field error: absolute = 2.7307741895701e-05 relative = 5.5359688748289e-06 measure = 4.9327845790219
Field error: absolute = 2.7307741895701e-05 relative = 5.5359688748289e-06 measure = 4.9327845790219
Field error: absolute = 2.7307741895701e-05 relative = 5.5359688748289e-06 measure = 4.9327845790219
Field error: absolute = 2.7307741895701e-05 relative = 5.5359688748289e-06 measure = 4.9327845790219
Field error: absolute = 2.7307741895701e-05 relative = 5.5359688748289e-06 measure = 4.9327845790219
Field error: absolute = 2.7307741895701e-05 relative = 5.5359688748289e-06 measure = 4.9327845790219
Field error: absolute = 2.7307741895701e-05 relative = 5.5359688748289e-06 measure = 4.9327845790219
Field error: absolute = 2.7307741895701e-05 relative = 5.5359688748289e-06 measure = 4.9327845790219
Field error: absolute = 2.7307741895701e-05 relative = 5.5359688748289e-06 measure = 4.9327845790219
Field error: absolute = 2.7307741895701e-05 relative = 5.5359688748289e-06 measure = 4.9327845790219
Field error: absolute = 2.7307741895701e-05 relative = 5.5359688748289e-06 measure = 4.9327845790219
Field error: absolute = 2.7307741895701e-05 relative = 5.5359688748289e-06 measure = 4.9327845790219
Field error: absolute = 2.7307741895701e-05 relative = 5.5359688748289e-06 measure = 4.9327845790219
Field error: absolute = 2.7307741895701e-05 relative = 5.5359688748289e-06 measure = 4.9327845790219
Field error: absolute = 2.7307741895701e-05 relative = 5.5359688748289e-06 measure = 4.9327845790219
Field error: absolute = 2.7307741895701e-05 relative = 5.5359688748289e-06 measure = 4.9327845790219
Field error: absolute = 2.7307741895701e-05 relative = 5.5359688748289e-06 measure = 4.9327845790219
Field error: absolute = 2.7307741895701e-05 relative = 5.5359688748289e-06 measure = 4.9327845790219
Field error: absolute = 2.7307741895701e-05 relative = 5.5359688748289e-06 measure = 4.9327845790219
Field error: absolute = 2.7307741895701e-05 relative = 5.5359688748289e-06 measure = 4.9327845790219
Field error: absolute = 2.7307741895701e-05 relative = 5.5359688748289e-06 measure = 4.9327845790219
Field error: absolute = 2.7307741895701e-05 relative = 5.5359688748289e-06 measure = 4.9327845790219
Field error: absolute = 2.7307741895701e-05 relative = 5.5359688748289e-06 measure = 4.9327845790219
Field error: absolute = 2.7307741895701e-05 relative = 5.5359688748289e-06 measure = 4.9327845790219
Field error: absolute = 2.7307741895701e-05 relative = 5.5359688748289e-06 measure = 4.9327845790219
Field error: absolute = 2.7307741895701e-05 relative = 5.5359688748289e-06 measure = 4.9327845790219
Field error: absolute = 2.7307741895701e-05 relative = 5.5359688748289e-06 measure = 4.9327845790219
Field error: absolute = 2.7307741895701e-05 relative = 5.5359688748289e-06 measure = 4.9327845790219
Field error: absolute = 2.7307741895701e-05 relative = 5.5359688748289e-06 measure = 4.9327845790219
Field error: absolute = 2.7307741895701e-05 relative = 5.5359688748289e-06 measure = 4.9327845790219
Field error: absolute = 2.7307741895701e-05 relative = 5.5359688748289e-06 measure = 4.9327845790219
Field error: absolute = 2.7307741895701e-05 relative = 5.5359688748289e-06 measure = 4.9327845790219
Field error: absolute = 2.7307741895701e-05 relative = 5.5359688748289e-06 measure = 4.9327845790219
Field error: absolute = 2.7307741895701e-05 relative = 5.5359688748289e-06 measure = 4.9327845790219
Field error: absolute = 2.7307741895701e-05 relative = 5.5359688748289e-06 measure = 4.9327845790219
Field error: absolute = 2.7307741895701e-05 relative = 5.5359688748289e-06 measure = 4.9327845790219
Field error: absolute = 2.7307741895701e-05 relative = 5.5359688748289e-06 measure = 4.9327845790219
Field error: absolute = 2.7307741895701e-05 relative = 5.5359688748289e-06 measure = 4.9327845790219
Field error: absolute = 2.7307741895701e-05 relative = 5.5359688748289e-06 measure = 4.9327845790219
Field error: absolute = 2.7307741895701e-05 relative = 5.5359688748289e-06 measure = 4.9327845790219
Field error: absolute = 2.7307741895701e-05 relative = 5.5359688748289e-06 measure = 4.9327845790219
Field error: absolute = 2.7307741895701e-05 relative = 5.5359688748289e-06 measure = 4.9327845790219
Field error: absolute = 2.7307741895701e-05 relative = 5.5359688748289e-06 measure = 4.9327845790219
Field error: absolute = 2.7307741895701e-05 relative = 5.5359688748289e-06 measure = 4.9327845790219
Field error: absolute = 2.7307741895701e-05 relative = 5.5359688748289e-06 measure = 4.9327845790219
Field error: absolute = 2.7307741895701e-05 relative = 5.5359688748289e-06 measure = 4.9327845790219
[...]
Field error: absolute = 2.7307741895701e-05 relative = 5.5359688748289e-06 measure = 4.9327845790219
Field error: absolute = 2.7307741895701e-05 relative = 5.5359688748289e-06 measure = 4.9327845790219
Field error: absolute = 2.7307741895701e-05 relative = 5.5359688748289e-06 measure = 4.9327845790219
Field error: absolute = 2.7307741895701e-05 relative = 5.5359688748289e-06 measure = 4.9327845790219
Field error: absolute = 2.7307741895701e-05 relative = 5.5359688748289e-06 measure = 4.9327845790219
Field error: absolute = 2.7307741895701e-05 relative = 5.5359688748289e-06 measure = 4.9327845790219
Field error: absolute = 2.7307741895701e-05 relative = 5.5359688748289e-06 measure = 4.9327845790219
Field error: absolute = 2.7307741895701e-05 relative = 5.5359688748289e-06 measure = 4.9327845790219
Field error: absolute = 2.7307741895701e-05 relative = 5.5359688748289e-06 measure = 4.9327845790219
Field error: absolute = 2.7307741895701e-05 relative = 5.5359688748289e-06 measure = 4.9327845790219
Field error: absolute = 2.7307741895701e-05 relative = 5.5359688748289e-06 measure = 4.9327845790219
Field error: absolute = 2.7307741895701e-05 relative = 5.5359688748289e-06 measure = 4.9327845790219
Field error: absolute = 2.7307741895701e-05 relative = 5.5359688748289e-06 measure = 4.9327845790219
Field error: absolute = 2.7307741895701e-05 relative = 5.5359688748289e-06 measure = 4.9327845790219
Field error: absolute = 2.7307741895701e-05 relative = 5.5359688748289e-06 measure = 4.9327845790219
Field error: absolute = 2.7307741895701e-05 relative = 5.5359688748289e-06 measure = 4.9327845790219
Field error: absolute = 2.7307741895701e-05 relative = 5.5359688748289e-06 measure = 4.9327845790219
Field error: absolute = 2.7307741895701e-05 relative = 5.5359688748289e-06 measure = 4.9327845790219
Field error: absolute = 2.7307741895701e-05 relative = 5.5359688748289e-06 measure = 4.9327845790219
Field error: absolute = 2.7307741895701e-05 relative = 5.5359688748289e-06 measure = 4.9327845790219
Field error: absolute = 2.7307741895701e-05 relative = 5.5359688748289e-06 measure = 4.9327845790219
Field error: absolute = 2.7307741895701e-05 relative = 5.5359688748289e-06 measure = 4.9327845790219
Field error: absolute = 2.7307741895701e-05 relative = 5.5359688748289e-06 measure = 4.9327845790219
Field error: absolute = 2.7307741895701e-05 relative = 5.5359688748289e-06 measure = 4.9327845790219
Field error: absolute = 2.7307741895701e-05 relative = 5.5359688748289e-06 measure = 4.9327845790219
Field error: absolute = 2.7307741895701e-05 relative = 5.5359688748289e-06 measure = 4.9327845790219
Field error: absolute = 2.7307741895701e-05 relative = 5.5359688748289e-06 measure = 4.9327845790219
Field error: absolute = 2.7307741895701e-05 relative = 5.5359688748289e-06 measure = 4.9327845790219
Field error: absolute = 2.7307741895701e-05 relative = 5.5359688748289e-06 measure = 4.9327845790219
Field error: absolute = 2.7307741895701e-05 relative = 5.5359688748289e-06 measure = 4.9327845790219
Field error: absolute = 2.7307741895701e-05 relative = 5.5359688748289e-06 measure = 4.9327845790219
Field error: absolute = 2.7307741895701e-05 relative = 5.5359688748289e-06 measure = 4.9327845790219
Field error: absolute = 2.7307741895701e-05 relative = 5.5359688748289e-06 measure = 4.9327845790219
Field error: absolute = 2.7307741895701e-05 relative = 5.5359688748289e-06 measure = 4.9327845790219
Field error: absolute = 2.7307741895701e-05 relative = 5.5359688748289e-06 measure = 4.9327845790219
Field error: absolute = 2.7307741895701e-05 relative = 5.5359688748289e-06 measure = 4.9327845790219
Field error: absolute = 2.7307741895701e-05 relative = 5.5359688748289e-06 measure = 4.9327845790219
Field error: absolute = 2.7307741895701e-05 relative = 5.5359688748289e-06 measure = 4.9327845790219
Field error: absolute = 2.7307741895701e-05 relative = 5.5359688748289e-06 measure = 4.9327845790219
Field error: absolute = 2.7307741895701e-05 relative = 5.5359688748289e-06 measure = 4.9327845790219
Field error: absolute = 2.7307741895701e-05 relative = 5.5359688748289e-06 measure = 4.9327845790219
Field error: absolute = 2.7307741895701e-05 relative = 5.5359688748289e-06 measure = 4.9327845790219
Field error: absolute = 2.7307741895701e-05 relative = 5.5359688748289e-06 measure = 4.9327845790219
Field error: absolute = 2.7307741895701e-05 relative = 5.5359688748289e-06 measure = 4.9327845790219
Field error: absolute = 2.7307741895701e-05 relative = 5.5359688748289e-06 measure = 4.9327845790219
Field error: absolute = 2.7307741895701e-05 relative = 5.5359688748289e-06 measure = 4.9327845790219
Field error: absolute = 2.7307741895701e-05 relative = 5.5359688748289e-06 measure = 4.9327845790219
Field error: absolute = 2.7307741895701e-05 relative = 5.5359688748289e-06 measure = 4.9327845790219
Field error: absolute = 2.7307741895701e-05 relative = 5.5359688748289e-06 measure = 4.9327845790219
Field error: absolute = 2.7307741895701e-05 relative = 5.5359688748289e-06 measure = 4.9327845790219
Field error: absolute = 2.7307741895701e-05 relative = 5.5359688748289e-06 measure = 4.9327845790219
Field error: absolute = 2.7307741895701e-05 relative = 5.5359688748289e-06 measure = 4.9327845790219
Field error: absolute = 2.7307741895701e-05 relative = 5.5359688748289e-06 measure = 4.9327845790219
Field error: absolute = 2.7307741895701e-05 relative = 5.5359688748289e-06 measure = 4.9327845790219
Field error: absolute = 2.7307741895701e-05 relative = 5.5359688748289e-06 measure = 4.9327845790219
Field error: absolute = 2.7307741895701e-05 relative = 5.5359688748289e-06 measure = 4.9327845790219
Field error: absolute = 2.7307741895701e-05 relative = 5.5359688748289e-06 measure = 4.9327845790219
Field error: absolute = 2.7307741895701e-05 relative = 5.5359688748289e-06 measure = 4.9327845790219
Field error: absolute = 2.7307741895701e-05 relative = 5.5359688748289e-06 measure = 4.9327845790219
Field error: absolute = 2.7307741895701e-05 relative = 5.5359688748289e-06 measure = 4.9327845790219
Field error: absolute = 2.7307741895701e-05 relative = 5.5359688748289e-06 measure = 4.9327845790219
Field error: absolute = 2.7307741895701e-05 relative = 5.5359688748289e-06 measure = 4.9327845790219
Field error: absolute = 2.7307741895701e-05 relative = 5.5359688748289e-06 measure = 4.9327845790219
Field error: absolute = 2.7307741895701e-05 relative = 5.5359688748289e-06 measure = 4.9327845790219
Field error: absolute = 2.7307741895701e-05 relative = 5.5359688748289e-06 measure = 4.9327845790219
Field error: absolute = 2.7307741895701e-05 relative = 5.5359688748289e-06 measure = 4.9327845790219
Field error: absolute = 2.7307741895701e-05 relative = 5.5359688748289e-06 measure = 4.9327845790219
Field error: absolute = 2.7307741895701e-05 relative = 5.5359688748289e-06 measure = 4.9327845790219
Field error: absolute = 2.7307741895701e-05 relative = 5.5359688748289e-06 measure = 4.9327845790219
Field error: absolute = 2.7307741895701e-05 relative = 5.5359688748289e-06 measure = 4.9327845790219
Field error: absolute = 2.7307741895701e-05 relative = 5.5359688748289e-06 measure = 4.9327845790219
Field error: absolute = 2.7307741895701e-05 relative = 5.5359688748289e-06 measure = 4.9327845790219
Field error: absolute = 2.7307741895701e-05 relative = 5.5359688748289e-06 measure = 4.9327845790219
Field error: absolute = 2.7307741895701e-05 relative = 5.5359688748289e-06 measure = 4.9327845790219
Field error: absolute = 2.7307741895701e-05 relative = 5.5359688748289e-06 measure = 4.9327845790219
Field error: absolute = 2.7307741895701e-05 relative = 5.5359688748289e-06 measure = 4.9327845790219
Field error: absolute = 2.7307741895701e-05 relative = 5.5359688748289e-06 measure = 4.9327845790219
Field error: absolute = 2.7307741895701e-05 relative = 5.5359688748289e-06 measure = 4.9327845790219
Field error: absolute = 2.7307741895701e-05 relative = 5.5359688748289e-06 measure = 4.9327845790219
Field error: absolute = 2.7307741895701e-05 relative = 5.5359688748289e-06 measure = 4.9327845790219
Field error: absolute = 2.7307741895701e-05 relative = 5.5359688748289e-06 measure = 4.9327845790219
Field error: absolute = 2.7307741895701e-05 relative = 5.5359688748289e-06 measure = 4.9327845790219
Field error: absolute = 2.7307741895701e-05 relative = 5.5359688748289e-06 measure = 4.9327845790219
Field error: absolute = 2.7307741895701e-05 relative = 5.5359688748289e-06 measure = 4.9327845790219
Field error: absolute = 2.7307741895701e-05 relative = 5.5359688748289e-06 measure = 4.9327845790219
Field error: absolute = 2.7307741895701e-05 relative = 5.5359688748289e-06 measure = 4.9327845790219
Field error: absolute = 2.7307741895701e-05 relative = 5.5359688748289e-06 measure = 4.9327845790219
Field error: absolute = 2.7307741895701e-05 relative = 5.5359688748289e-06 measure = 4.9327845790219
Field error: absolute = 2.7307741895701e-05 relative = 5.5359688748289e-06 measure = 4.9327845790219
Field error: absolute = 2.7307741895701e-05 relative = 5.5359688748289e-06 measure = 4.9327845790219
Field error: absolute = 2.7307741895701e-05 relative = 5.5359688748289e-06 measure = 4.9327845790219
Field error: absolute = 2.7307741895701e-05 relative = 5.5359688748289e-06 measure = 4.9327845790219
Field error: absolute = 2.7307741895701e-05 relative = 5.5359688748289e-06 measure = 4.9327845790219
Field error: absolute = 2.7307741895701e-05 relative = 5.5359688748289e-06 measure = 4.9327845790219
Field error: absolute = 2.7307741895701e-05 relative = 5.5359688748289e-06 measure = 4.9327845790219
Field error: absolute = 2.7307741895701e-05 relative = 5.5359688748289e-06 measure = 4.9327845790219
Field error: absolute = 2.7307741895701e-05 relative = 5.5359688748289e-06 measure = 4.9327845790219
Field error: absolute = 2.7307741895701e-05 relative = 5.5359688748289e-06 measure = 4.9327845790219
Field error: absolute = 2.7307741895701e-05 relative = 5.5359688748289e-06 measure = 4.9327845790219
Field error: absolute = 2.7307741895701e-05 relative = 5.5359688748289e-06 measure = 4.9327845790219
Field error: absolute = 2.7307741895701e-05 relative = 5.5359688748289e-06 measure = 4.9327845790219
Field error: absolute = 2.7307741895701e-05 relative = 5.5359688748289e-06 measure = 4.9327845790219
Field error: absolute = 2.7307741895701e-05 relative = 5.5359688748289e-06 measure = 4.9327845790219
Field error: absolute = 2.7307741895701e-05 relative = 5.5359688748289e-06 measure = 4.9327845790219
Field error: absolute = 2.7307741895701e-05 relative = 5.5359688748289e-06 measure = 4.9327845790219
Field error: absolute = 2.7307741895701e-05 relative = 5.5359688748289e-06 measure = 4.9327845790219
Field error: absolute = 2.7307741895701e-05 relative = 5.5359688748289e-06 measure = 4.9327845790219
Field error: absolute = 2.7307741895701e-05 relative = 5.5359688748289e-06 measure = 4.9327845790219
Field error: absolute = 2.7307741895701e-05 relative = 5.5359688748289e-06 measure = 4.9327845790219
Field error: absolute = 2.7307741895701e-05 relative = 5.5359688748289e-06 measure = 4.9327845790219
Field error: absolute = 2.7307741895701e-05 relative = 5.5359688748289e-06 measure = 4.9327845790219
Field error: absolute = 2.7307741895701e-05 relative = 5.5359688748289e-06 measure = 4.9327845790219
Field error: absolute = 2.7307741895701e-05 relative = 5.5359688748289e-06 measure = 4.9327845790219
Field error: absolute = 2.7307741895701e-05 relative = 5.5359688748289e-06 measure = 4.9327845790219
Field error: absolute = 2.7307741895701e-05 relative = 5.5359688748289e-06 measure = 4.9327845790219
Field error: absolute = 2.7307741895701e-05 relative = 5.5359688748289e-06 measure = 4.9327845790219
Field error: absolute = 2.7307741895701e-05 relative = 5.5359688748289e-06 measure = 4.9327845790219
Field error: absolute = 2.7307741895701e-05 relative = 5.5359688748289e-06 measure = 4.9327845790219
Field error: absolute = 2.7307741895701e-05 relative = 5.5359688748289e-06 measure = 4.9327845790219
Field error: absolute = 2.7307741895701e-05 relative = 5.5359688748289e-06 measure = 4.9327845790219
Field error: absolute = 2.7307741895701e-05 relative = 5.5359688748289e-06 measure = 4.9327845790219
Field error: absolute = 2.7307741895701e-05 relative = 5.5359688748289e-06 measure = 4.9327845790219
Field error: absolute = 2.7307741895701e-05 relative = 5.5359688748289e-06 measure = 4.9327845790219
Field error: absolute = 2.7307741895701e-05 relative = 5.5359688748289e-06 measure = 4.9327845790219
Field error: absolute = 2.7307741895701e-05 relative = 5.5359688748289e-06 measure = 4.9327845790219
Field error: absolute = 2.7307741895701e-05 relative = 5.5359688748289e-06 measure = 4.9327845790219
Field error: absolute = 2.7307741895701e-05 relative = 5.5359688748289e-06 measure = 4.9327845790219
Field error: absolute = 2.7307741895701e-05 relative = 5.5359688748289e-06 measure = 4.9327845790219
Field error: absolute = 2.7307741895701e-05 relative = 5.5359688748289e-06 measure = 4.9327845790219
Field error: absolute = 2.7307741895701e-05 relative = 5.5359688748289e-06 measure = 4.9327845790219
Field error: absolute = 2.7307741895701e-05 relative = 5.5359688748289e-06 measure = 4.9327845790219
Field error: absolute = 2.7307741895701e-05 relative = 5.5359688748289e-06 measure = 4.9327845790219
Field error: absolute = 2.7307741895701e-05 relative = 5.5359688748289e-06 measure = 4.9327845790219
Field error: absolute = 2.7307741895701e-05 relative = 5.5359688748289e-06 measure = 4.9327845790219
Field error: absolute = 2.7307741895701e-05 relative = 5.5359688748289e-06 measure = 4.9327845790219
Field error: absolute = 2.7307741895701e-05 relative = 5.5359688748289e-06 measure = 4.9327845790219
Field error: absolute = 2.7307741895701e-05 relative = 5.5359688748289e-06 measure = 4.9327845790219
Field error: absolute = 2.7307741895701e-05 relative = 5.5359688748289e-06 measure = 4.9327845790219
Field error: absolute = 2.7307741895701e-05 relative = 5.5359688748289e-06 measure = 4.9327845790219
Field error: absolute = 2.7307741895701e-05 relative = 5.5359688748289e-06 measure = 4.9327845790219
Field error: absolute = 2.7307741895701e-05 relative = 5.5359688748289e-06 measure = 4.9327845790219
Field error: absolute = 2.7307741895701e-05 relative = 5.5359688748289e-06 measure = 4.9327845790219
Field error: absolute = 2.7307741895701e-05 relative = 5.5359688748289e-06 measure = 4.9327845790219
Field error: absolute = 2.7307741895701e-05 relative = 5.5359688748289e-06 measure = 4.9327845790219
Field error: absolute = 2.7307741895701e-05 relative = 5.5359688748289e-06 measure = 4.9327845790219
Field error: absolute = 2.7307741895701e-05 relative = 5.5359688748289e-06 measure = 4.9327845790219
Field error: absolute = 2.7307741895701e-05 relative = 5.5359688748289e-06 measure = 4.9327845790219
Field error: absolute = 2.7307741895701e-05 relative = 5.5359688748289e-06 measure = 4.9327845790219
Field error: absolute = 2.7307741895701e-05 relative = 5.5359688748289e-06 measure = 4.9327845790219
Field error: absolute = 2.7307741895701e-05 relative = 5.5359688748289e-06 measure = 4.9327845790219
Field error: absolute = 2.7307741895701e-05 relative = 5.5359688748289e-06 measure = 4.9327845790219
Field error: absolute = 2.7307741895701e-05 relative = 5.5359688748289e-06 measure = 4.9327845790219
Field error: absolute = 2.7307741895701e-05 relative = 5.5359688748289e-06 measure = 4.9327845790219
Field error: absolute = 2.7307741895701e-05 relative = 5.5359688748289e-06 measure = 4.9327845790219
Field error: absolute = 2.7307741895701e-05 relative = 5.5359688748289e-06 measure = 4.9327845790219
Field error: absolute = 2.7307741895701e-05 relative = 5.5359688748289e-06 measure = 4.9327845790219
Field error: absolute = 2.7307741895701e-05 relative = 5.5359688748289e-06 measure = 4.9327845790219
Field error: absolute = 2.7307741895701e-05 relative = 5.5359688748289e-06 measure = 4.9327845790219
Field error: absolute = 2.7307741895701e-05 relative = 5.5359688748289e-06 measure = 4.9327845790219
Field error: absolute = 2.7307741895701e-05 relative = 5.5359688748289e-06 measure = 4.9327845790219
Field error: absolute = 2.7307741895701e-05 relative = 5.5359688748289e-06 measure = 4.9327845790219
Field error: absolute = 2.7307741895701e-05 relative = 5.5359688748289e-06 measure = 4.9327845790219
Field error: absolute = 2.7307741895701e-05 relative = 5.5359688748289e-06 measure = 4.9327845790219
Field error: absolute = 2.7307741895701e-05 relative = 5.5359688748289e-06 measure = 4.9327845790219
Field error: absolute = 2.7307741895701e-05 relative = 5.5359688748289e-06 measure = 4.9327845790219
Field error: absolute = 2.7307741895701e-05 relative = 5.5359688748289e-06 measure = 4.9327845790219
Field error: absolute = 2.7307741895701e-05 relative = 5.5359688748289e-06 measure = 4.9327845790219
Field error: absolute = 2.7307741895701e-05 relative = 5.5359688748289e-06 measure = 4.9327845790219
Field error: absolute = 2.7307741895701e-05 relative = 5.5359688748289e-06 measure = 4.9327845790219
Field error: absolute = 2.7307741895701e-05 relative = 5.5359688748289e-06 measure = 4.9327845790219
Field error: absolute = 2.7307741895701e-05 relative = 5.5359688748289e-06 measure = 4.9327845790219
Field error: absolute = 2.7307741895701e-05 relative = 5.5359688748289e-06 measure = 4.9327845790219
Field error: absolute = 2.7307741895701e-05 relative = 5.5359688748289e-06 measure = 4.9327845790219
Field error: absolute = 2.7307741895701e-05 relative = 5.5359688748289e-06 measure = 4.9327845790219
Field error: absolute = 2.7307741895701e-05 relative = 5.5359688748289e-06 measure = 4.9327845790219
Field error: absolute = 2.7307741895701e-05 relative = 5.5359688748289e-06 measure = 4.9327845790219
Field error: absolute = 2.7307741895701e-05 relative = 5.5359688748289e-06 measure = 4.9327845790219
Field error: absolute = 2.7307741895701e-05 relative = 5.5359688748289e-06 measure = 4.9327845790219
Field error: absolute = 2.7307741895701e-05 relative = 5.5359688748289e-06 measure = 4.9327845790219
Field error: absolute = 2.7307741895701e-05 relative = 5.5359688748289e-06 measure = 4.9327845790219
Field error: absolute = 2.7307741895701e-05 relative = 5.5359688748289e-06 measure = 4.9327845790219
Field error: absolute = 2.7307741895701e-05 relative = 5.5359688748289e-06 measure = 4.9327845790219
Field error: absolute = 2.7307741895701e-05 relative = 5.5359688748289e-06 measure = 4.9327845790219
Field error: absolute = 2.7307741895701e-05 relative = 5.5359688748289e-06 measure = 4.9327845790219
Field error: absolute = 2.7307741895701e-05 relative = 5.5359688748289e-06 measure = 4.9327845790219
Field error: absolute = 2.7307741895701e-05 relative = 5.5359688748289e-06 measure = 4.9327845790219
Field error: absolute = 2.7307741895701e-05 relative = 5.5359688748289e-06 measure = 4.9327845790219
Field error: absolute = 2.7307741895701e-05 relative = 5.5359688748289e-06 measure = 4.9327845790219
Field error: absolute = 2.7307741895701e-05 relative = 5.5359688748289e-06 measure = 4.9327845790219
Writing POD scalar base for volScalarField C in folder '0'

printing files
Le dimensioni di scalarPODOrthoNormalBasis sono:5
"Average Concentration ofCPOD0="CPOD0.weightedAverage(weights) [0 0 0 0 0 0 0] 0.4908408929028
"Average Concentration ofCPOD0="0.4908408929028
"Average Concentration ofCPOD1="CPOD1.weightedAverage(weights) [0 0 0 0 0 0 0] 0.21540625177888
"Average Concentration ofCPOD1="0.21540625177888
"Average Concentration ofCPOD2="CPOD2.weightedAverage(weights) [0 0 0 0 0 0 0] 0.11008676095324
"Average Concentration ofCPOD2="0.11008676095324
"Average Concentration ofCPOD3="CPOD3.weightedAverage(weights) [0 0 0 0 0 0 0] 0.092282661562384
"Average Concentration ofCPOD3="0.092282661562384
"Average Concentration ofCPOD4="CPOD4.weightedAverage(weights) [0 0 0 0 0 0 0] -0.079389696223766
"Average Concentration ofCPOD4="-0.079389696223766

ExecutionTime = 208.5198 s

End

